*SPICE netlist created from BLIF module prv332sv0 by blif2BSpice
.include /usr/share/qflow/tech/osu035/osu035_stdcells.sp
.subckt prv332sv0 vdd gnd clk rst timer_int soft_int ext_int hready hresp hreset_n hrdata<0> hrdata<1> hrdata<2> hrdata<3> hrdata<4> hrdata<5> hrdata<6> hrdata<7> hrdata<8> hrdata<9> hrdata<10> hrdata<11> hrdata<12> hrdata<13> hrdata<14> hrdata<15> hrdata<16> hrdata<17> hrdata<18> hrdata<19> hrdata<20> hrdata<21> hrdata<22> hrdata<23> hrdata<24> hrdata<25> hrdata<26> hrdata<27> hrdata<28> hrdata<29> hrdata<30> hrdata<31> haddr<0> haddr<1> haddr<2> haddr<3> haddr<4> haddr<5> haddr<6> haddr<7> haddr<8> haddr<9> haddr<10> haddr<11> haddr<12> haddr<13> haddr<14> haddr<15> haddr<16> haddr<17> haddr<18> haddr<19> haddr<20> haddr<21> haddr<22> haddr<23> haddr<24> haddr<25> haddr<26> haddr<27> haddr<28> haddr<29> haddr<30> haddr<31> haddr<32> haddr<33> hwrite hsize<0> hsize<1> hburst<0> hburst<1> hburst<2> hprot<0> hprot<1> hprot<2> hprot<3> htrans<0> htrans<1> hmastlock hwdata<0> hwdata<1> hwdata<2> hwdata<3> hwdata<4> hwdata<5> hwdata<6> hwdata<7> hwdata<8> hwdata<9> hwdata<10> hwdata<11> hwdata<12> hwdata<13> hwdata<14> hwdata<15> hwdata<16> hwdata<17> hwdata<18> hwdata<19> hwdata<20> hwdata<21> hwdata<22> hwdata<23> hwdata<24> hwdata<25> hwdata<26> hwdata<27> hwdata<28> hwdata<29> hwdata<30> hwdata<31> 
XBUFX4_1 vdd gnd clk clk_hier0_bF$buf11 BUFX4
XBUFX4_2 vdd gnd clk clk_hier0_bF$buf10 BUFX4
XBUFX4_3 vdd gnd clk clk_hier0_bF$buf9 BUFX4
XBUFX4_4 vdd gnd clk clk_hier0_bF$buf8 BUFX4
XBUFX4_5 vdd gnd clk clk_hier0_bF$buf7 BUFX4
XBUFX4_6 vdd gnd clk clk_hier0_bF$buf6 BUFX4
XBUFX4_7 vdd gnd clk clk_hier0_bF$buf5 BUFX4
XBUFX4_8 vdd gnd clk clk_hier0_bF$buf4 BUFX4
XBUFX4_9 vdd gnd clk clk_hier0_bF$buf3 BUFX4
XBUFX4_10 vdd gnd clk clk_hier0_bF$buf2 BUFX4
XBUFX4_11 vdd gnd clk clk_hier0_bF$buf1 BUFX4
XBUFX4_12 vdd gnd clk clk_hier0_bF$buf0 BUFX4
XBUFX4_13 vdd gnd _7303__bF$buf3 _7303__bF$buf3_bF$buf3 BUFX4
XBUFX2_1 vdd gnd _7303__bF$buf3 _7303__bF$buf3_bF$buf2 BUFX2
XBUFX4_14 vdd gnd _7303__bF$buf3 _7303__bF$buf3_bF$buf1 BUFX4
XBUFX2_2 vdd gnd _7303__bF$buf3 _7303__bF$buf3_bF$buf0 BUFX2
XBUFX4_15 vdd gnd _7303__bF$buf4 _7303__bF$buf4_bF$buf3 BUFX4
XBUFX4_16 vdd gnd _7303__bF$buf4 _7303__bF$buf4_bF$buf2 BUFX4
XBUFX2_3 vdd gnd _7303__bF$buf4 _7303__bF$buf4_bF$buf1 BUFX2
XBUFX2_4 vdd gnd _7303__bF$buf4 _7303__bF$buf4_bF$buf0 BUFX2
XBUFX4_17 vdd gnd _7303__bF$buf5 _7303__bF$buf5_bF$buf3 BUFX4
XBUFX2_5 vdd gnd _7303__bF$buf5 _7303__bF$buf5_bF$buf2 BUFX2
XBUFX2_6 vdd gnd _7303__bF$buf5 _7303__bF$buf5_bF$buf1 BUFX2
XBUFX2_7 vdd gnd _7303__bF$buf5 _7303__bF$buf5_bF$buf0 BUFX2
XBUFX4_18 vdd gnd _7303__bF$buf6 _7303__bF$buf6_bF$buf3 BUFX4
XBUFX2_8 vdd gnd _7303__bF$buf6 _7303__bF$buf6_bF$buf2 BUFX2
XBUFX2_9 vdd gnd _7303__bF$buf6 _7303__bF$buf6_bF$buf1 BUFX2
XBUFX2_10 vdd gnd _7303__bF$buf6 _7303__bF$buf6_bF$buf0 BUFX2
XBUFX4_19 vdd gnd _7303__bF$buf7 _7303__bF$buf7_bF$buf3 BUFX4
XBUFX4_20 vdd gnd _7303__bF$buf7 _7303__bF$buf7_bF$buf2 BUFX4
XBUFX2_11 vdd gnd _7303__bF$buf7 _7303__bF$buf7_bF$buf1 BUFX2
XBUFX2_12 vdd gnd _7303__bF$buf7 _7303__bF$buf7_bF$buf0 BUFX2
XBUFX4_21 vdd gnd _7303__bF$buf8 _7303__bF$buf8_bF$buf3 BUFX4
XBUFX2_13 vdd gnd _7303__bF$buf8 _7303__bF$buf8_bF$buf2 BUFX2
XBUFX2_14 vdd gnd _7303__bF$buf8 _7303__bF$buf8_bF$buf1 BUFX2
XBUFX2_15 vdd gnd _7303__bF$buf8 _7303__bF$buf8_bF$buf0 BUFX2
XBUFX4_22 vdd gnd _7303__bF$buf9 _7303__bF$buf9_bF$buf3 BUFX4
XBUFX2_16 vdd gnd _7303__bF$buf9 _7303__bF$buf9_bF$buf2 BUFX2
XBUFX2_17 vdd gnd _7303__bF$buf9 _7303__bF$buf9_bF$buf1 BUFX2
XBUFX2_18 vdd gnd _7303__bF$buf9 _7303__bF$buf9_bF$buf0 BUFX2
XBUFX4_23 vdd gnd _7304__bF$buf10 _7304__bF$buf10_bF$buf3 BUFX4
XBUFX2_19 vdd gnd _7304__bF$buf10 _7304__bF$buf10_bF$buf2 BUFX2
XBUFX4_24 vdd gnd _7304__bF$buf10 _7304__bF$buf10_bF$buf1 BUFX4
XBUFX2_20 vdd gnd _7304__bF$buf10 _7304__bF$buf10_bF$buf0 BUFX2
XBUFX4_25 vdd gnd _7304__bF$buf11 _7304__bF$buf11_bF$buf3 BUFX4
XBUFX2_21 vdd gnd _7304__bF$buf11 _7304__bF$buf11_bF$buf2 BUFX2
XBUFX4_26 vdd gnd _7304__bF$buf11 _7304__bF$buf11_bF$buf1 BUFX4
XBUFX2_22 vdd gnd _7304__bF$buf11 _7304__bF$buf11_bF$buf0 BUFX2
XBUFX4_27 vdd gnd _7304__bF$buf12 _7304__bF$buf12_bF$buf3 BUFX4
XBUFX2_23 vdd gnd _7304__bF$buf12 _7304__bF$buf12_bF$buf2 BUFX2
XBUFX4_28 vdd gnd _7304__bF$buf12 _7304__bF$buf12_bF$buf1 BUFX4
XBUFX4_29 vdd gnd _7304__bF$buf12 _7304__bF$buf12_bF$buf0 BUFX4
XBUFX4_30 vdd gnd _7304__bF$buf13 _7304__bF$buf13_bF$buf3 BUFX4
XBUFX2_24 vdd gnd _7304__bF$buf13 _7304__bF$buf13_bF$buf2 BUFX2
XBUFX4_31 vdd gnd _7304__bF$buf13 _7304__bF$buf13_bF$buf1 BUFX4
XBUFX2_25 vdd gnd _7304__bF$buf13 _7304__bF$buf13_bF$buf0 BUFX2
XBUFX4_32 vdd gnd _7304__bF$buf14 _7304__bF$buf14_bF$buf3 BUFX4
XBUFX2_26 vdd gnd _7304__bF$buf14 _7304__bF$buf14_bF$buf2 BUFX2
XBUFX2_27 vdd gnd _7304__bF$buf14 _7304__bF$buf14_bF$buf1 BUFX2
XBUFX2_28 vdd gnd _7304__bF$buf14 _7304__bF$buf14_bF$buf0 BUFX2
XBUFX4_33 vdd gnd _7304__bF$buf6 _7304__bF$buf6_bF$buf3 BUFX4
XBUFX2_29 vdd gnd _7304__bF$buf6 _7304__bF$buf6_bF$buf2 BUFX2
XBUFX4_34 vdd gnd _7304__bF$buf6 _7304__bF$buf6_bF$buf1 BUFX4
XBUFX2_30 vdd gnd _7304__bF$buf6 _7304__bF$buf6_bF$buf0 BUFX2
XBUFX4_35 vdd gnd _7304__bF$buf7 _7304__bF$buf7_bF$buf3 BUFX4
XBUFX2_31 vdd gnd _7304__bF$buf7 _7304__bF$buf7_bF$buf2 BUFX2
XBUFX2_32 vdd gnd _7304__bF$buf7 _7304__bF$buf7_bF$buf1 BUFX2
XBUFX2_33 vdd gnd _7304__bF$buf7 _7304__bF$buf7_bF$buf0 BUFX2
XBUFX4_36 vdd gnd _7304__bF$buf8 _7304__bF$buf8_bF$buf3 BUFX4
XBUFX2_34 vdd gnd _7304__bF$buf8 _7304__bF$buf8_bF$buf2 BUFX2
XBUFX4_37 vdd gnd _7304__bF$buf8 _7304__bF$buf8_bF$buf1 BUFX4
XBUFX2_35 vdd gnd _7304__bF$buf8 _7304__bF$buf8_bF$buf0 BUFX2
XBUFX4_38 vdd gnd _7304__bF$buf9 _7304__bF$buf9_bF$buf3 BUFX4
XBUFX2_36 vdd gnd _7304__bF$buf9 _7304__bF$buf9_bF$buf2 BUFX2
XBUFX2_37 vdd gnd _7304__bF$buf9 _7304__bF$buf9_bF$buf1 BUFX2
XBUFX2_38 vdd gnd _7304__bF$buf9 _7304__bF$buf9_bF$buf0 BUFX2
XBUFX4_39 vdd gnd _6879_ _6879__hier0_bF$buf5 BUFX4
XBUFX4_40 vdd gnd _6879_ _6879__hier0_bF$buf4 BUFX4
XBUFX4_41 vdd gnd _6879_ _6879__hier0_bF$buf3 BUFX4
XBUFX4_42 vdd gnd _6879_ _6879__hier0_bF$buf2 BUFX4
XBUFX4_43 vdd gnd _6879_ _6879__hier0_bF$buf1 BUFX4
XBUFX4_44 vdd gnd _6879_ _6879__hier0_bF$buf0 BUFX4
XBUFX4_45 vdd gnd _7303__bF$buf10 _7303__bF$buf10_bF$buf3 BUFX4
XBUFX2_39 vdd gnd _7303__bF$buf10 _7303__bF$buf10_bF$buf2 BUFX2
XBUFX2_40 vdd gnd _7303__bF$buf10 _7303__bF$buf10_bF$buf1 BUFX2
XBUFX2_41 vdd gnd _7303__bF$buf10 _7303__bF$buf10_bF$buf0 BUFX2
XBUFX4_46 vdd gnd _7303__bF$buf11 _7303__bF$buf11_bF$buf3 BUFX4
XBUFX2_42 vdd gnd _7303__bF$buf11 _7303__bF$buf11_bF$buf2 BUFX2
XBUFX2_43 vdd gnd _7303__bF$buf11 _7303__bF$buf11_bF$buf1 BUFX2
XBUFX2_44 vdd gnd _7303__bF$buf11 _7303__bF$buf11_bF$buf0 BUFX2
XBUFX4_47 vdd gnd _7303__bF$buf12 _7303__bF$buf12_bF$buf3 BUFX4
XBUFX2_45 vdd gnd _7303__bF$buf12 _7303__bF$buf12_bF$buf2 BUFX2
XBUFX2_46 vdd gnd _7303__bF$buf12 _7303__bF$buf12_bF$buf1 BUFX2
XBUFX2_47 vdd gnd _7303__bF$buf12 _7303__bF$buf12_bF$buf0 BUFX2
XBUFX4_48 vdd gnd _7303__bF$buf13 _7303__bF$buf13_bF$buf3 BUFX4
XBUFX2_48 vdd gnd _7303__bF$buf13 _7303__bF$buf13_bF$buf2 BUFX2
XBUFX2_49 vdd gnd _7303__bF$buf13 _7303__bF$buf13_bF$buf1 BUFX2
XBUFX2_50 vdd gnd _7303__bF$buf13 _7303__bF$buf13_bF$buf0 BUFX2
XBUFX4_49 vdd gnd _7303__bF$buf14 _7303__bF$buf14_bF$buf3 BUFX4
XBUFX2_51 vdd gnd _7303__bF$buf14 _7303__bF$buf14_bF$buf2 BUFX2
XBUFX2_52 vdd gnd _7303__bF$buf14 _7303__bF$buf14_bF$buf1 BUFX2
XBUFX4_50 vdd gnd _7303__bF$buf14 _7303__bF$buf14_bF$buf0 BUFX4
XBUFX4_51 vdd gnd rst rst_hier0_bF$buf7 BUFX4
XBUFX4_52 vdd gnd rst rst_hier0_bF$buf6 BUFX4
XBUFX4_53 vdd gnd rst rst_hier0_bF$buf5 BUFX4
XBUFX4_54 vdd gnd rst rst_hier0_bF$buf4 BUFX4
XBUFX4_55 vdd gnd rst rst_hier0_bF$buf3 BUFX4
XBUFX4_56 vdd gnd rst rst_hier0_bF$buf2 BUFX4
XBUFX4_57 vdd gnd rst rst_hier0_bF$buf1 BUFX4
XBUFX4_58 vdd gnd rst rst_hier0_bF$buf0 BUFX4
XBUFX4_59 vdd gnd _7434_ _7434__bF$buf4 BUFX4
XBUFX4_60 vdd gnd _7434_ _7434__bF$buf3 BUFX4
XBUFX4_61 vdd gnd _7434_ _7434__bF$buf2 BUFX4
XBUFX4_62 vdd gnd _7434_ _7434__bF$buf1 BUFX4
XBUFX4_63 vdd gnd _7434_ _7434__bF$buf0 BUFX4
XBUFX4_64 vdd gnd _32_ _32__bF$buf3 BUFX4
XBUFX4_65 vdd gnd _32_ _32__bF$buf2 BUFX4
XBUFX4_66 vdd gnd _32_ _32__bF$buf1 BUFX4
XBUFX4_67 vdd gnd _32_ _32__bF$buf0 BUFX4
XBUFX4_68 vdd gnd _6292_ _6292__bF$buf4 BUFX4
XBUFX4_69 vdd gnd _6292_ _6292__bF$buf3 BUFX4
XBUFX4_70 vdd gnd _6292_ _6292__bF$buf2 BUFX4
XBUFX4_71 vdd gnd _6292_ _6292__bF$buf1 BUFX4
XBUFX4_72 vdd gnd _6292_ _6292__bF$buf0 BUFX4
XBUFX4_73 vdd gnd _6160_ _6160__bF$buf10 BUFX4
XBUFX4_74 vdd gnd _6160_ _6160__bF$buf9 BUFX4
XBUFX4_75 vdd gnd _6160_ _6160__bF$buf8 BUFX4
XBUFX4_76 vdd gnd _6160_ _6160__bF$buf7 BUFX4
XBUFX4_77 vdd gnd _6160_ _6160__bF$buf6 BUFX4
XBUFX4_78 vdd gnd _6160_ _6160__bF$buf5 BUFX4
XBUFX4_79 vdd gnd _6160_ _6160__bF$buf4 BUFX4
XBUFX4_80 vdd gnd _6160_ _6160__bF$buf3 BUFX4
XBUFX4_81 vdd gnd _6160_ _6160__bF$buf2 BUFX4
XBUFX4_82 vdd gnd _6160_ _6160__bF$buf1 BUFX4
XBUFX4_83 vdd gnd _6160_ _6160__bF$buf0 BUFX4
XBUFX4_84 vdd gnd _14545_ _14545__bF$buf3 BUFX4
XBUFX4_85 vdd gnd _14545_ _14545__bF$buf2 BUFX4
XBUFX4_86 vdd gnd _14545_ _14545__bF$buf1 BUFX4
XBUFX4_87 vdd gnd _14545_ _14545__bF$buf0 BUFX4
XBUFX4_88 vdd gnd _2499_ _2499__bF$buf4 BUFX4
XBUFX4_89 vdd gnd _2499_ _2499__bF$buf3 BUFX4
XBUFX4_90 vdd gnd _2499_ _2499__bF$buf2 BUFX4
XBUFX4_91 vdd gnd _2499_ _2499__bF$buf1 BUFX4
XBUFX4_92 vdd gnd _2499_ _2499__bF$buf0 BUFX4
XBUFX4_93 vdd gnd _13776_ _13776__bF$buf3 BUFX4
XBUFX4_94 vdd gnd _13776_ _13776__bF$buf2 BUFX4
XBUFX4_95 vdd gnd _13776_ _13776__bF$buf1 BUFX4
XBUFX4_96 vdd gnd _13776_ _13776__bF$buf0 BUFX4
XBUFX4_97 vdd gnd _6931_ _6931__bF$buf3 BUFX4
XBUFX4_98 vdd gnd _6931_ _6931__bF$buf2 BUFX4
XBUFX4_99 vdd gnd _6931_ _6931__bF$buf1 BUFX4
XBUFX4_100 vdd gnd _6931_ _6931__bF$buf0 BUFX4
XBUFX4_101 vdd gnd _13415_ _13415__bF$buf6 BUFX4
XBUFX4_102 vdd gnd _13415_ _13415__bF$buf5 BUFX4
XBUFX4_103 vdd gnd _13415_ _13415__bF$buf4 BUFX4
XBUFX4_104 vdd gnd _13415_ _13415__bF$buf3 BUFX4
XBUFX4_105 vdd gnd _13415_ _13415__bF$buf2 BUFX4
XBUFX4_106 vdd gnd _13415_ _13415__bF$buf1 BUFX4
XBUFX4_107 vdd gnd _13415_ _13415__bF$buf0 BUFX4
XBUFX4_108 vdd gnd _1068_ _1068__bF$buf4 BUFX4
XBUFX4_109 vdd gnd _1068_ _1068__bF$buf3 BUFX4
XBUFX4_110 vdd gnd _1068_ _1068__bF$buf2 BUFX4
XBUFX4_111 vdd gnd _1068_ _1068__bF$buf1 BUFX4
XBUFX4_112 vdd gnd _1068_ _1068__bF$buf0 BUFX4
XBUFX4_113 vdd gnd _4893_ _4893__bF$buf5 BUFX4
XBUFX4_114 vdd gnd _4893_ _4893__bF$buf4 BUFX4
XBUFX4_115 vdd gnd _4893_ _4893__bF$buf3 BUFX4
XBUFX4_116 vdd gnd _4893_ _4893__bF$buf2 BUFX4
XBUFX4_117 vdd gnd _4893_ _4893__bF$buf1 BUFX4
XBUFX4_118 vdd gnd _4893_ _4893__bF$buf0 BUFX4
XBUFX4_119 vdd gnd _13470_ _13470__bF$buf4 BUFX4
XBUFX4_120 vdd gnd _13470_ _13470__bF$buf3 BUFX4
XBUFX4_121 vdd gnd _13470_ _13470__bF$buf2 BUFX4
XBUFX4_122 vdd gnd _13470_ _13470__bF$buf1 BUFX4
XBUFX4_123 vdd gnd _13470_ _13470__bF$buf0 BUFX4
XBUFX4_124 vdd gnd _8328_ _8328__bF$buf5 BUFX4
XBUFX4_125 vdd gnd _8328_ _8328__bF$buf4 BUFX4
XBUFX4_126 vdd gnd _8328_ _8328__bF$buf3 BUFX4
XBUFX4_127 vdd gnd _8328_ _8328__bF$buf2 BUFX4
XBUFX4_128 vdd gnd _8328_ _8328__bF$buf1 BUFX4
XBUFX4_129 vdd gnd _8328_ _8328__bF$buf0 BUFX4
XBUFX4_130 vdd gnd _2994_ _2994__bF$buf4 BUFX4
XBUFX4_131 vdd gnd _2994_ _2994__bF$buf3 BUFX4
XBUFX4_132 vdd gnd _2994_ _2994__bF$buf2 BUFX4
XBUFX4_133 vdd gnd _2994_ _2994__bF$buf1 BUFX4
XBUFX4_134 vdd gnd _2994_ _2994__bF$buf0 BUFX4
XBUFX4_135 vdd gnd _8557_ _8557__bF$buf5 BUFX4
XBUFX4_136 vdd gnd _8557_ _8557__bF$buf4 BUFX4
XBUFX4_137 vdd gnd _8557_ _8557__bF$buf3 BUFX4
XBUFX4_138 vdd gnd _8557_ _8557__bF$buf2 BUFX4
XBUFX4_139 vdd gnd _8557_ _8557__bF$buf1 BUFX4
XBUFX4_140 vdd gnd _8557_ _8557__bF$buf0 BUFX4
XBUFX4_141 vdd gnd _2862_ _2862__bF$buf4 BUFX4
XBUFX4_142 vdd gnd _2862_ _2862__bF$buf3 BUFX4
XBUFX4_143 vdd gnd _2862_ _2862__bF$buf2 BUFX4
XBUFX4_144 vdd gnd _2862_ _2862__bF$buf1 BUFX4
XBUFX4_145 vdd gnd _2862_ _2862__bF$buf0 BUFX4
XBUFX4_146 vdd gnd _2531_ _2531__bF$buf4 BUFX4
XBUFX4_147 vdd gnd _2531_ _2531__bF$buf3 BUFX4
XBUFX4_148 vdd gnd _2531_ _2531__bF$buf2 BUFX4
XBUFX4_149 vdd gnd _2531_ _2531__bF$buf1 BUFX4
XBUFX4_150 vdd gnd _2531_ _2531__bF$buf0 BUFX4
XBUFX4_151 vdd gnd _2501_ _2501__bF$buf4 BUFX4
XBUFX4_152 vdd gnd _2501_ _2501__bF$buf3 BUFX4
XBUFX4_153 vdd gnd _2501_ _2501__bF$buf2 BUFX4
XBUFX4_154 vdd gnd _2501_ _2501__bF$buf1 BUFX4
XBUFX4_155 vdd gnd _2501_ _2501__bF$buf0 BUFX4
XBUFX4_156 vdd gnd _6459_ _6459__bF$buf4 BUFX4
XBUFX4_157 vdd gnd _6459_ _6459__bF$buf3 BUFX4
XBUFX4_158 vdd gnd _6459_ _6459__bF$buf2 BUFX4
XBUFX4_159 vdd gnd _6459_ _6459__bF$buf1 BUFX4
XBUFX4_160 vdd gnd _6459_ _6459__bF$buf0 BUFX4
XBUFX4_161 vdd gnd _8684_ _8684__bF$buf5 BUFX4
XBUFX4_162 vdd gnd _8684_ _8684__bF$buf4 BUFX4
XBUFX4_163 vdd gnd _8684_ _8684__bF$buf3 BUFX4
XBUFX4_164 vdd gnd _8684_ _8684__bF$buf2 BUFX4
XBUFX4_165 vdd gnd _8684_ _8684__bF$buf1 BUFX4
XBUFX4_166 vdd gnd _8684_ _8684__bF$buf0 BUFX4
XBUFX4_167 vdd gnd _2730_ _2730__bF$buf5 BUFX4
XBUFX4_168 vdd gnd _2730_ _2730__bF$buf4 BUFX4
XBUFX4_169 vdd gnd _2730_ _2730__bF$buf3 BUFX4
XBUFX4_170 vdd gnd _2730_ _2730__bF$buf2 BUFX4
XBUFX4_171 vdd gnd _2730_ _2730__bF$buf1 BUFX4
XBUFX4_172 vdd gnd _2730_ _2730__bF$buf0 BUFX4
XBUFX4_173 vdd gnd _9020_ _9020__bF$buf3 BUFX4
XBUFX2_53 vdd gnd _9020_ _9020__bF$buf2 BUFX2
XBUFX2_54 vdd gnd _9020_ _9020__bF$buf1 BUFX2
XBUFX2_55 vdd gnd _9020_ _9020__bF$buf0 BUFX2
XBUFX4_174 vdd gnd _6026_ _6026__bF$buf10 BUFX4
XBUFX4_175 vdd gnd _6026_ _6026__bF$buf9 BUFX4
XBUFX4_176 vdd gnd _6026_ _6026__bF$buf8 BUFX4
XBUFX4_177 vdd gnd _6026_ _6026__bF$buf7 BUFX4
XBUFX4_178 vdd gnd _6026_ _6026__bF$buf6 BUFX4
XBUFX4_179 vdd gnd _6026_ _6026__bF$buf5 BUFX4
XBUFX4_180 vdd gnd _6026_ _6026__bF$buf4 BUFX4
XBUFX4_181 vdd gnd _6026_ _6026__bF$buf3 BUFX4
XBUFX4_182 vdd gnd _6026_ _6026__bF$buf2 BUFX4
XBUFX4_183 vdd gnd _6026_ _6026__bF$buf1 BUFX4
XBUFX4_184 vdd gnd _6026_ _6026__bF$buf0 BUFX4
XBUFX4_185 vdd gnd _8281_ _8281__bF$buf5 BUFX4
XBUFX4_186 vdd gnd _8281_ _8281__bF$buf4 BUFX4
XBUFX4_187 vdd gnd _8281_ _8281__bF$buf3 BUFX4
XBUFX4_188 vdd gnd _8281_ _8281__bF$buf2 BUFX4
XBUFX4_189 vdd gnd _8281_ _8281__bF$buf1 BUFX4
XBUFX4_190 vdd gnd _8281_ _8281__bF$buf0 BUFX4
XBUFX4_191 vdd gnd _7584_ _7584__bF$buf5 BUFX4
XBUFX4_192 vdd gnd _7584_ _7584__bF$buf4 BUFX4
XBUFX4_193 vdd gnd _7584_ _7584__bF$buf3 BUFX4
XBUFX4_194 vdd gnd _7584_ _7584__bF$buf2 BUFX4
XBUFX4_195 vdd gnd _7584_ _7584__bF$buf1 BUFX4
XBUFX4_196 vdd gnd _7584_ _7584__bF$buf0 BUFX4
XBUFX4_197 vdd gnd clk_hier0_bF$buf11 clk_bF$buf160 BUFX4
XBUFX4_198 vdd gnd clk_hier0_bF$buf10 clk_bF$buf159 BUFX4
XBUFX4_199 vdd gnd clk_hier0_bF$buf9 clk_bF$buf158 BUFX4
XBUFX4_200 vdd gnd clk_hier0_bF$buf8 clk_bF$buf157 BUFX4
XBUFX4_201 vdd gnd clk_hier0_bF$buf7 clk_bF$buf156 BUFX4
XBUFX4_202 vdd gnd clk_hier0_bF$buf6 clk_bF$buf155 BUFX4
XBUFX4_203 vdd gnd clk_hier0_bF$buf5 clk_bF$buf154 BUFX4
XBUFX4_204 vdd gnd clk_hier0_bF$buf4 clk_bF$buf153 BUFX4
XBUFX4_205 vdd gnd clk_hier0_bF$buf3 clk_bF$buf152 BUFX4
XBUFX4_206 vdd gnd clk_hier0_bF$buf2 clk_bF$buf151 BUFX4
XBUFX4_207 vdd gnd clk_hier0_bF$buf1 clk_bF$buf150 BUFX4
XBUFX4_208 vdd gnd clk_hier0_bF$buf0 clk_bF$buf149 BUFX4
XBUFX4_209 vdd gnd clk_hier0_bF$buf11 clk_bF$buf148 BUFX4
XBUFX4_210 vdd gnd clk_hier0_bF$buf10 clk_bF$buf147 BUFX4
XBUFX4_211 vdd gnd clk_hier0_bF$buf9 clk_bF$buf146 BUFX4
XBUFX4_212 vdd gnd clk_hier0_bF$buf8 clk_bF$buf145 BUFX4
XBUFX4_213 vdd gnd clk_hier0_bF$buf7 clk_bF$buf144 BUFX4
XBUFX4_214 vdd gnd clk_hier0_bF$buf6 clk_bF$buf143 BUFX4
XBUFX4_215 vdd gnd clk_hier0_bF$buf5 clk_bF$buf142 BUFX4
XBUFX4_216 vdd gnd clk_hier0_bF$buf4 clk_bF$buf141 BUFX4
XBUFX4_217 vdd gnd clk_hier0_bF$buf3 clk_bF$buf140 BUFX4
XBUFX4_218 vdd gnd clk_hier0_bF$buf2 clk_bF$buf139 BUFX4
XBUFX4_219 vdd gnd clk_hier0_bF$buf1 clk_bF$buf138 BUFX4
XBUFX4_220 vdd gnd clk_hier0_bF$buf0 clk_bF$buf137 BUFX4
XBUFX4_221 vdd gnd clk_hier0_bF$buf11 clk_bF$buf136 BUFX4
XBUFX4_222 vdd gnd clk_hier0_bF$buf10 clk_bF$buf135 BUFX4
XBUFX4_223 vdd gnd clk_hier0_bF$buf9 clk_bF$buf134 BUFX4
XBUFX4_224 vdd gnd clk_hier0_bF$buf8 clk_bF$buf133 BUFX4
XBUFX4_225 vdd gnd clk_hier0_bF$buf7 clk_bF$buf132 BUFX4
XBUFX4_226 vdd gnd clk_hier0_bF$buf6 clk_bF$buf131 BUFX4
XBUFX4_227 vdd gnd clk_hier0_bF$buf5 clk_bF$buf130 BUFX4
XBUFX4_228 vdd gnd clk_hier0_bF$buf4 clk_bF$buf129 BUFX4
XBUFX4_229 vdd gnd clk_hier0_bF$buf3 clk_bF$buf128 BUFX4
XBUFX4_230 vdd gnd clk_hier0_bF$buf2 clk_bF$buf127 BUFX4
XBUFX4_231 vdd gnd clk_hier0_bF$buf1 clk_bF$buf126 BUFX4
XBUFX4_232 vdd gnd clk_hier0_bF$buf0 clk_bF$buf125 BUFX4
XBUFX4_233 vdd gnd clk_hier0_bF$buf11 clk_bF$buf124 BUFX4
XBUFX4_234 vdd gnd clk_hier0_bF$buf10 clk_bF$buf123 BUFX4
XBUFX4_235 vdd gnd clk_hier0_bF$buf9 clk_bF$buf122 BUFX4
XBUFX4_236 vdd gnd clk_hier0_bF$buf8 clk_bF$buf121 BUFX4
XBUFX4_237 vdd gnd clk_hier0_bF$buf7 clk_bF$buf120 BUFX4
XBUFX4_238 vdd gnd clk_hier0_bF$buf6 clk_bF$buf119 BUFX4
XBUFX4_239 vdd gnd clk_hier0_bF$buf5 clk_bF$buf118 BUFX4
XBUFX4_240 vdd gnd clk_hier0_bF$buf4 clk_bF$buf117 BUFX4
XBUFX4_241 vdd gnd clk_hier0_bF$buf3 clk_bF$buf116 BUFX4
XBUFX4_242 vdd gnd clk_hier0_bF$buf2 clk_bF$buf115 BUFX4
XBUFX4_243 vdd gnd clk_hier0_bF$buf1 clk_bF$buf114 BUFX4
XBUFX4_244 vdd gnd clk_hier0_bF$buf0 clk_bF$buf113 BUFX4
XBUFX4_245 vdd gnd clk_hier0_bF$buf11 clk_bF$buf112 BUFX4
XBUFX4_246 vdd gnd clk_hier0_bF$buf10 clk_bF$buf111 BUFX4
XBUFX4_247 vdd gnd clk_hier0_bF$buf9 clk_bF$buf110 BUFX4
XBUFX4_248 vdd gnd clk_hier0_bF$buf8 clk_bF$buf109 BUFX4
XBUFX4_249 vdd gnd clk_hier0_bF$buf7 clk_bF$buf108 BUFX4
XBUFX4_250 vdd gnd clk_hier0_bF$buf6 clk_bF$buf107 BUFX4
XBUFX4_251 vdd gnd clk_hier0_bF$buf5 clk_bF$buf106 BUFX4
XBUFX4_252 vdd gnd clk_hier0_bF$buf4 clk_bF$buf105 BUFX4
XBUFX4_253 vdd gnd clk_hier0_bF$buf3 clk_bF$buf104 BUFX4
XBUFX4_254 vdd gnd clk_hier0_bF$buf2 clk_bF$buf103 BUFX4
XBUFX4_255 vdd gnd clk_hier0_bF$buf1 clk_bF$buf102 BUFX4
XBUFX4_256 vdd gnd clk_hier0_bF$buf0 clk_bF$buf101 BUFX4
XBUFX4_257 vdd gnd clk_hier0_bF$buf11 clk_bF$buf100 BUFX4
XBUFX4_258 vdd gnd clk_hier0_bF$buf10 clk_bF$buf99 BUFX4
XBUFX4_259 vdd gnd clk_hier0_bF$buf9 clk_bF$buf98 BUFX4
XBUFX4_260 vdd gnd clk_hier0_bF$buf8 clk_bF$buf97 BUFX4
XBUFX4_261 vdd gnd clk_hier0_bF$buf7 clk_bF$buf96 BUFX4
XBUFX4_262 vdd gnd clk_hier0_bF$buf6 clk_bF$buf95 BUFX4
XBUFX4_263 vdd gnd clk_hier0_bF$buf5 clk_bF$buf94 BUFX4
XBUFX4_264 vdd gnd clk_hier0_bF$buf4 clk_bF$buf93 BUFX4
XBUFX4_265 vdd gnd clk_hier0_bF$buf3 clk_bF$buf92 BUFX4
XBUFX4_266 vdd gnd clk_hier0_bF$buf2 clk_bF$buf91 BUFX4
XBUFX4_267 vdd gnd clk_hier0_bF$buf1 clk_bF$buf90 BUFX4
XBUFX4_268 vdd gnd clk_hier0_bF$buf0 clk_bF$buf89 BUFX4
XBUFX4_269 vdd gnd clk_hier0_bF$buf11 clk_bF$buf88 BUFX4
XBUFX4_270 vdd gnd clk_hier0_bF$buf10 clk_bF$buf87 BUFX4
XBUFX4_271 vdd gnd clk_hier0_bF$buf9 clk_bF$buf86 BUFX4
XBUFX4_272 vdd gnd clk_hier0_bF$buf8 clk_bF$buf85 BUFX4
XBUFX4_273 vdd gnd clk_hier0_bF$buf7 clk_bF$buf84 BUFX4
XBUFX4_274 vdd gnd clk_hier0_bF$buf6 clk_bF$buf83 BUFX4
XBUFX4_275 vdd gnd clk_hier0_bF$buf5 clk_bF$buf82 BUFX4
XBUFX4_276 vdd gnd clk_hier0_bF$buf4 clk_bF$buf81 BUFX4
XBUFX4_277 vdd gnd clk_hier0_bF$buf3 clk_bF$buf80 BUFX4
XBUFX4_278 vdd gnd clk_hier0_bF$buf2 clk_bF$buf79 BUFX4
XBUFX4_279 vdd gnd clk_hier0_bF$buf1 clk_bF$buf78 BUFX4
XBUFX4_280 vdd gnd clk_hier0_bF$buf0 clk_bF$buf77 BUFX4
XBUFX4_281 vdd gnd clk_hier0_bF$buf11 clk_bF$buf76 BUFX4
XBUFX4_282 vdd gnd clk_hier0_bF$buf10 clk_bF$buf75 BUFX4
XBUFX4_283 vdd gnd clk_hier0_bF$buf9 clk_bF$buf74 BUFX4
XBUFX4_284 vdd gnd clk_hier0_bF$buf8 clk_bF$buf73 BUFX4
XBUFX4_285 vdd gnd clk_hier0_bF$buf7 clk_bF$buf72 BUFX4
XBUFX4_286 vdd gnd clk_hier0_bF$buf6 clk_bF$buf71 BUFX4
XBUFX4_287 vdd gnd clk_hier0_bF$buf5 clk_bF$buf70 BUFX4
XBUFX4_288 vdd gnd clk_hier0_bF$buf4 clk_bF$buf69 BUFX4
XBUFX4_289 vdd gnd clk_hier0_bF$buf3 clk_bF$buf68 BUFX4
XBUFX4_290 vdd gnd clk_hier0_bF$buf2 clk_bF$buf67 BUFX4
XBUFX4_291 vdd gnd clk_hier0_bF$buf1 clk_bF$buf66 BUFX4
XBUFX4_292 vdd gnd clk_hier0_bF$buf0 clk_bF$buf65 BUFX4
XBUFX4_293 vdd gnd clk_hier0_bF$buf11 clk_bF$buf64 BUFX4
XBUFX4_294 vdd gnd clk_hier0_bF$buf10 clk_bF$buf63 BUFX4
XBUFX4_295 vdd gnd clk_hier0_bF$buf9 clk_bF$buf62 BUFX4
XBUFX4_296 vdd gnd clk_hier0_bF$buf8 clk_bF$buf61 BUFX4
XBUFX4_297 vdd gnd clk_hier0_bF$buf7 clk_bF$buf60 BUFX4
XBUFX4_298 vdd gnd clk_hier0_bF$buf6 clk_bF$buf59 BUFX4
XBUFX4_299 vdd gnd clk_hier0_bF$buf5 clk_bF$buf58 BUFX4
XBUFX4_300 vdd gnd clk_hier0_bF$buf4 clk_bF$buf57 BUFX4
XBUFX4_301 vdd gnd clk_hier0_bF$buf3 clk_bF$buf56 BUFX4
XBUFX4_302 vdd gnd clk_hier0_bF$buf2 clk_bF$buf55 BUFX4
XBUFX4_303 vdd gnd clk_hier0_bF$buf1 clk_bF$buf54 BUFX4
XBUFX4_304 vdd gnd clk_hier0_bF$buf0 clk_bF$buf53 BUFX4
XBUFX4_305 vdd gnd clk_hier0_bF$buf11 clk_bF$buf52 BUFX4
XBUFX4_306 vdd gnd clk_hier0_bF$buf10 clk_bF$buf51 BUFX4
XBUFX4_307 vdd gnd clk_hier0_bF$buf9 clk_bF$buf50 BUFX4
XBUFX4_308 vdd gnd clk_hier0_bF$buf8 clk_bF$buf49 BUFX4
XBUFX4_309 vdd gnd clk_hier0_bF$buf7 clk_bF$buf48 BUFX4
XBUFX4_310 vdd gnd clk_hier0_bF$buf6 clk_bF$buf47 BUFX4
XBUFX4_311 vdd gnd clk_hier0_bF$buf5 clk_bF$buf46 BUFX4
XBUFX4_312 vdd gnd clk_hier0_bF$buf4 clk_bF$buf45 BUFX4
XBUFX4_313 vdd gnd clk_hier0_bF$buf3 clk_bF$buf44 BUFX4
XBUFX4_314 vdd gnd clk_hier0_bF$buf2 clk_bF$buf43 BUFX4
XBUFX4_315 vdd gnd clk_hier0_bF$buf1 clk_bF$buf42 BUFX4
XBUFX4_316 vdd gnd clk_hier0_bF$buf0 clk_bF$buf41 BUFX4
XBUFX4_317 vdd gnd clk_hier0_bF$buf11 clk_bF$buf40 BUFX4
XBUFX4_318 vdd gnd clk_hier0_bF$buf10 clk_bF$buf39 BUFX4
XBUFX4_319 vdd gnd clk_hier0_bF$buf9 clk_bF$buf38 BUFX4
XBUFX4_320 vdd gnd clk_hier0_bF$buf8 clk_bF$buf37 BUFX4
XBUFX4_321 vdd gnd clk_hier0_bF$buf7 clk_bF$buf36 BUFX4
XBUFX4_322 vdd gnd clk_hier0_bF$buf6 clk_bF$buf35 BUFX4
XBUFX4_323 vdd gnd clk_hier0_bF$buf5 clk_bF$buf34 BUFX4
XBUFX4_324 vdd gnd clk_hier0_bF$buf4 clk_bF$buf33 BUFX4
XBUFX4_325 vdd gnd clk_hier0_bF$buf3 clk_bF$buf32 BUFX4
XBUFX4_326 vdd gnd clk_hier0_bF$buf2 clk_bF$buf31 BUFX4
XBUFX4_327 vdd gnd clk_hier0_bF$buf1 clk_bF$buf30 BUFX4
XBUFX4_328 vdd gnd clk_hier0_bF$buf0 clk_bF$buf29 BUFX4
XBUFX4_329 vdd gnd clk_hier0_bF$buf11 clk_bF$buf28 BUFX4
XBUFX4_330 vdd gnd clk_hier0_bF$buf10 clk_bF$buf27 BUFX4
XBUFX4_331 vdd gnd clk_hier0_bF$buf9 clk_bF$buf26 BUFX4
XBUFX4_332 vdd gnd clk_hier0_bF$buf8 clk_bF$buf25 BUFX4
XBUFX4_333 vdd gnd clk_hier0_bF$buf7 clk_bF$buf24 BUFX4
XBUFX4_334 vdd gnd clk_hier0_bF$buf6 clk_bF$buf23 BUFX4
XBUFX4_335 vdd gnd clk_hier0_bF$buf5 clk_bF$buf22 BUFX4
XBUFX4_336 vdd gnd clk_hier0_bF$buf4 clk_bF$buf21 BUFX4
XBUFX4_337 vdd gnd clk_hier0_bF$buf3 clk_bF$buf20 BUFX4
XBUFX4_338 vdd gnd clk_hier0_bF$buf2 clk_bF$buf19 BUFX4
XBUFX4_339 vdd gnd clk_hier0_bF$buf1 clk_bF$buf18 BUFX4
XBUFX4_340 vdd gnd clk_hier0_bF$buf0 clk_bF$buf17 BUFX4
XBUFX4_341 vdd gnd clk_hier0_bF$buf11 clk_bF$buf16 BUFX4
XBUFX4_342 vdd gnd clk_hier0_bF$buf10 clk_bF$buf15 BUFX4
XBUFX4_343 vdd gnd clk_hier0_bF$buf9 clk_bF$buf14 BUFX4
XBUFX4_344 vdd gnd clk_hier0_bF$buf8 clk_bF$buf13 BUFX4
XBUFX4_345 vdd gnd clk_hier0_bF$buf7 clk_bF$buf12 BUFX4
XBUFX4_346 vdd gnd clk_hier0_bF$buf6 clk_bF$buf11 BUFX4
XBUFX4_347 vdd gnd clk_hier0_bF$buf5 clk_bF$buf10 BUFX4
XBUFX4_348 vdd gnd clk_hier0_bF$buf4 clk_bF$buf9 BUFX4
XBUFX4_349 vdd gnd clk_hier0_bF$buf3 clk_bF$buf8 BUFX4
XBUFX4_350 vdd gnd clk_hier0_bF$buf2 clk_bF$buf7 BUFX4
XBUFX4_351 vdd gnd clk_hier0_bF$buf1 clk_bF$buf6 BUFX4
XBUFX4_352 vdd gnd clk_hier0_bF$buf0 clk_bF$buf5 BUFX4
XBUFX4_353 vdd gnd clk_hier0_bF$buf11 clk_bF$buf4 BUFX4
XBUFX4_354 vdd gnd clk_hier0_bF$buf10 clk_bF$buf3 BUFX4
XBUFX4_355 vdd gnd clk_hier0_bF$buf9 clk_bF$buf2 BUFX4
XBUFX4_356 vdd gnd clk_hier0_bF$buf8 clk_bF$buf1 BUFX4
XBUFX4_357 vdd gnd clk_hier0_bF$buf7 clk_bF$buf0 BUFX4
XBUFX4_358 vdd gnd _7320_ _7320__bF$buf3 BUFX4
XBUFX4_359 vdd gnd _7320_ _7320__bF$buf2 BUFX4
XBUFX4_360 vdd gnd _7320_ _7320__bF$buf1 BUFX4
XBUFX4_361 vdd gnd _7320_ _7320__bF$buf0 BUFX4
XBUFX4_362 vdd gnd _14334_ _14334__bF$buf4 BUFX4
XBUFX4_363 vdd gnd _14334_ _14334__bF$buf3 BUFX4
XBUFX4_364 vdd gnd _14334_ _14334__bF$buf2 BUFX4
XBUFX4_365 vdd gnd _14334_ _14334__bF$buf1 BUFX4
XBUFX4_366 vdd gnd _14334_ _14334__bF$buf0 BUFX4
XBUFX4_367 vdd gnd _4886_ _4886__bF$buf3 BUFX4
XBUFX4_368 vdd gnd _4886_ _4886__bF$buf2 BUFX4
XBUFX4_369 vdd gnd _4886_ _4886__bF$buf1 BUFX4
XBUFX4_370 vdd gnd _4886_ _4886__bF$buf0 BUFX4
XBUFX4_371 vdd gnd _2589_ _2589__bF$buf4 BUFX4
XBUFX4_372 vdd gnd _2589_ _2589__bF$buf3 BUFX4
XBUFX4_373 vdd gnd _2589_ _2589__bF$buf2 BUFX4
XBUFX4_374 vdd gnd _2589_ _2589__bF$buf1 BUFX4
XBUFX4_375 vdd gnd _2589_ _2589__bF$buf0 BUFX4
XBUFX4_376 vdd gnd _2529_ _2529__bF$buf4 BUFX4
XBUFX4_377 vdd gnd _2529_ _2529__bF$buf3 BUFX4
XBUFX4_378 vdd gnd _2529_ _2529__bF$buf2 BUFX4
XBUFX4_379 vdd gnd _2529_ _2529__bF$buf1 BUFX4
XBUFX4_380 vdd gnd _2529_ _2529__bF$buf0 BUFX4
XBUFX4_381 vdd gnd _2487_ _2487__bF$buf8 BUFX4
XBUFX4_382 vdd gnd _2487_ _2487__bF$buf7 BUFX4
XBUFX4_383 vdd gnd _2487_ _2487__bF$buf6 BUFX4
XBUFX4_384 vdd gnd _2487_ _2487__bF$buf5 BUFX4
XBUFX4_385 vdd gnd _2487_ _2487__bF$buf4 BUFX4
XBUFX4_386 vdd gnd _2487_ _2487__bF$buf3 BUFX4
XBUFX4_387 vdd gnd _2487_ _2487__bF$buf2 BUFX4
XBUFX4_388 vdd gnd _2487_ _2487__bF$buf1 BUFX4
XBUFX4_389 vdd gnd _2487_ _2487__bF$buf0 BUFX4
XBUFX4_390 vdd gnd _13463_ _13463__bF$buf4 BUFX4
XBUFX4_391 vdd gnd _13463_ _13463__bF$buf3 BUFX4
XBUFX4_392 vdd gnd _13463_ _13463__bF$buf2 BUFX4
XBUFX4_393 vdd gnd _13463_ _13463__bF$buf1 BUFX4
XBUFX4_394 vdd gnd _13463_ _13463__bF$buf0 BUFX4
XBUFX4_395 vdd gnd _13391_ _13391__bF$buf7 BUFX4
XBUFX4_396 vdd gnd _13391_ _13391__bF$buf6 BUFX4
XBUFX4_397 vdd gnd _13391_ _13391__bF$buf5 BUFX4
XBUFX4_398 vdd gnd _13391_ _13391__bF$buf4 BUFX4
XBUFX4_399 vdd gnd _13391_ _13391__bF$buf3 BUFX4
XBUFX4_400 vdd gnd _13391_ _13391__bF$buf2 BUFX4
XBUFX4_401 vdd gnd _13391_ _13391__bF$buf1 BUFX4
XBUFX4_402 vdd gnd _13391_ _13391__bF$buf0 BUFX4
XBUFX4_403 vdd gnd _4881_ _4881__bF$buf11 BUFX4
XBUFX4_404 vdd gnd _4881_ _4881__bF$buf10 BUFX4
XBUFX4_405 vdd gnd _4881_ _4881__bF$buf9 BUFX4
XBUFX4_406 vdd gnd _4881_ _4881__bF$buf8 BUFX4
XBUFX4_407 vdd gnd _4881_ _4881__bF$buf7 BUFX4
XBUFX4_408 vdd gnd _4881_ _4881__bF$buf6 BUFX4
XBUFX4_409 vdd gnd _4881_ _4881__bF$buf5 BUFX4
XBUFX4_410 vdd gnd _4881_ _4881__bF$buf4 BUFX4
XBUFX4_411 vdd gnd _4881_ _4881__bF$buf3 BUFX4
XBUFX4_412 vdd gnd _4881_ _4881__bF$buf2 BUFX4
XBUFX4_413 vdd gnd _4881_ _4881__bF$buf1 BUFX4
XBUFX4_414 vdd gnd _4881_ _4881__bF$buf0 BUFX4
XBUFX4_415 vdd gnd _9175_ _9175__bF$buf4 BUFX4
XBUFX4_416 vdd gnd _9175_ _9175__bF$buf3 BUFX4
XBUFX4_417 vdd gnd _9175_ _9175__bF$buf2 BUFX4
XBUFX4_418 vdd gnd _9175_ _9175__bF$buf1 BUFX4
XBUFX4_419 vdd gnd _9175_ _9175__bF$buf0 BUFX4
XBUFX4_420 vdd gnd _1225_ _1225__bF$buf5 BUFX4
XBUFX4_421 vdd gnd _1225_ _1225__bF$buf4 BUFX4
XBUFX4_422 vdd gnd _1225_ _1225__bF$buf3 BUFX4
XBUFX4_423 vdd gnd _1225_ _1225__bF$buf2 BUFX4
XBUFX4_424 vdd gnd _1225_ _1225__bF$buf1 BUFX4
XBUFX4_425 vdd gnd _1225_ _1225__bF$buf0 BUFX4
XBUFX4_426 vdd gnd _12291_ _12291__bF$buf3 BUFX4
XBUFX4_427 vdd gnd _12291_ _12291__bF$buf2 BUFX4
XBUFX4_428 vdd gnd _12291_ _12291__bF$buf1 BUFX4
XBUFX4_429 vdd gnd _12291_ _12291__bF$buf0 BUFX4
XBUFX4_430 vdd gnd _8117_ _8117__bF$buf6 BUFX4
XBUFX4_431 vdd gnd _8117_ _8117__bF$buf5 BUFX4
XBUFX4_432 vdd gnd _8117_ _8117__bF$buf4 BUFX4
XBUFX4_433 vdd gnd _8117_ _8117__bF$buf3 BUFX4
XBUFX4_434 vdd gnd _8117_ _8117__bF$buf2 BUFX4
XBUFX4_435 vdd gnd _8117_ _8117__bF$buf1 BUFX4
XBUFX4_436 vdd gnd _8117_ _8117__bF$buf0 BUFX4
XBUFX4_437 vdd gnd _11402_ _11402__bF$buf3 BUFX4
XBUFX2_56 vdd gnd _11402_ _11402__bF$buf2 BUFX2
XBUFX2_57 vdd gnd _11402_ _11402__bF$buf1 BUFX2
XBUFX2_58 vdd gnd _11402_ _11402__bF$buf0 BUFX2
XBUFX4_438 vdd gnd biu.mmu.msu<0> biu.mmu.msu_0_bF$buf4 BUFX4
XBUFX4_439 vdd gnd biu.mmu.msu<0> biu.mmu.msu_0_bF$buf3 BUFX4
XBUFX4_440 vdd gnd biu.mmu.msu<0> biu.mmu.msu_0_bF$buf2 BUFX4
XBUFX4_441 vdd gnd biu.mmu.msu<0> biu.mmu.msu_0_bF$buf1 BUFX4
XBUFX4_442 vdd gnd biu.mmu.msu<0> biu.mmu.msu_0_bF$buf0 BUFX4
XBUFX4_443 vdd gnd _8846_ _8846__bF$buf3 BUFX4
XBUFX4_444 vdd gnd _8846_ _8846__bF$buf2 BUFX4
XBUFX4_445 vdd gnd _8846_ _8846__bF$buf1 BUFX4
XBUFX4_446 vdd gnd _8846_ _8846__bF$buf0 BUFX4
XBUFX4_447 vdd gnd _9110_ _9110__bF$buf3 BUFX4
XBUFX4_448 vdd gnd _9110_ _9110__bF$buf2 BUFX4
XBUFX2_59 vdd gnd _9110_ _9110__bF$buf1 BUFX2
XBUFX4_449 vdd gnd _9110_ _9110__bF$buf0 BUFX4
XBUFX4_450 vdd gnd _1220_ _1220__bF$buf5 BUFX4
XBUFX4_451 vdd gnd _1220_ _1220__bF$buf4 BUFX4
XBUFX4_452 vdd gnd _1220_ _1220__bF$buf3 BUFX4
XBUFX4_453 vdd gnd _1220_ _1220__bF$buf2 BUFX4
XBUFX4_454 vdd gnd _1220_ _1220__bF$buf1 BUFX4
XBUFX4_455 vdd gnd _1220_ _1220__bF$buf0 BUFX4
XBUFX4_456 vdd gnd _3117_ _3117__bF$buf9 BUFX4
XBUFX4_457 vdd gnd _3117_ _3117__bF$buf8 BUFX4
XBUFX4_458 vdd gnd _3117_ _3117__bF$buf7 BUFX4
XBUFX4_459 vdd gnd _3117_ _3117__bF$buf6 BUFX4
XBUFX4_460 vdd gnd _3117_ _3117__bF$buf5 BUFX4
XBUFX4_461 vdd gnd _3117_ _3117__bF$buf4 BUFX4
XBUFX4_462 vdd gnd _3117_ _3117__bF$buf3 BUFX4
XBUFX4_463 vdd gnd _3117_ _3117__bF$buf2 BUFX4
XBUFX4_464 vdd gnd _3117_ _3117__bF$buf1 BUFX4
XBUFX4_465 vdd gnd _3117_ _3117__bF$buf0 BUFX4
XBUFX2_60 vdd gnd biu.ins<25> biu.ins_25_bF$buf3 BUFX2
XBUFX4_466 vdd gnd biu.ins<25> biu.ins_25_bF$buf2 BUFX4
XBUFX4_467 vdd gnd biu.ins<25> biu.ins_25_bF$buf1 BUFX4
XBUFX2_61 vdd gnd biu.ins<25> biu.ins_25_bF$buf0 BUFX2
XBUFX4_468 vdd gnd addr_csr<27> addr_csr_27_bF$buf3 BUFX4
XBUFX4_469 vdd gnd addr_csr<27> addr_csr_27_bF$buf2 BUFX4
XBUFX4_470 vdd gnd addr_csr<27> addr_csr_27_bF$buf1 BUFX4
XBUFX4_471 vdd gnd addr_csr<27> addr_csr_27_bF$buf0 BUFX4
XBUFX4_472 vdd gnd _2547_ _2547__bF$buf4 BUFX4
XBUFX4_473 vdd gnd _2547_ _2547__bF$buf3 BUFX4
XBUFX4_474 vdd gnd _2547_ _2547__bF$buf2 BUFX4
XBUFX4_475 vdd gnd _2547_ _2547__bF$buf1 BUFX4
XBUFX4_476 vdd gnd _2547_ _2547__bF$buf0 BUFX4
XBUFX4_477 vdd gnd _2517_ _2517__bF$buf4 BUFX4
XBUFX4_478 vdd gnd _2517_ _2517__bF$buf3 BUFX4
XBUFX4_479 vdd gnd _2517_ _2517__bF$buf2 BUFX4
XBUFX4_480 vdd gnd _2517_ _2517__bF$buf1 BUFX4
XBUFX4_481 vdd gnd _2517_ _2517__bF$buf0 BUFX4
XBUFX4_482 vdd gnd _14822_ _14822__bF$buf3 BUFX4
XBUFX4_483 vdd gnd _14822_ _14822__bF$buf2 BUFX4