* XSpice netlist created from SPICE and liberty sources by spi2xspice.py
*SPICE netlist created from BLIF module prv332sv0 by blif2BSpice
.subckt prv332sv0 a_vdd a_gnd a_clk a_rst a_timer_int a_soft_int a_ext_int a_hready a_hresp a_hreset_n a_hrdata_0_ a_hrdata_1_ a_hrdata_2_ a_hrdata_3_ a_hrdata_4_ a_hrdata_5_ a_hrdata_6_ a_hrdata_7_ a_hrdata_8_ a_hrdata_9_ a_hrdata_10_ a_hrdata_11_ a_hrdata_12_ a_hrdata_13_ a_hrdata_14_ a_hrdata_15_ a_hrdata_16_ a_hrdata_17_ a_hrdata_18_ a_hrdata_19_ a_hrdata_20_ a_hrdata_21_ a_hrdata_22_ a_hrdata_23_ a_hrdata_24_ a_hrdata_25_ a_hrdata_26_ a_hrdata_27_ a_hrdata_28_ a_hrdata_29_ a_hrdata_30_ a_hrdata_31_ a_haddr_0_ a_haddr_1_ a_haddr_2_ a_haddr_3_ a_haddr_4_ a_haddr_5_ a_haddr_6_ a_haddr_7_ a_haddr_8_ a_haddr_9_ a_haddr_10_ a_haddr_11_ a_haddr_12_ a_haddr_13_ a_haddr_14_ a_haddr_15_ a_haddr_16_ a_haddr_17_ a_haddr_18_ a_haddr_19_ a_haddr_20_ a_haddr_21_ a_haddr_22_ a_haddr_23_ a_haddr_24_ a_haddr_25_ a_haddr_26_ a_haddr_27_ a_haddr_28_ a_haddr_29_ a_haddr_30_ a_haddr_31_ a_haddr_32_ a_haddr_33_ a_hwrite a_hsize_0_ a_hsize_1_ a_hburst_0_ a_hburst_1_ a_hburst_2_ a_hprot_0_ a_hprot_1_ a_hprot_2_ a_hprot_3_ a_htrans_0_ a_htrans_1_ a_hmastlock a_hwdata_0_ a_hwdata_1_ a_hwdata_2_ a_hwdata_3_ a_hwdata_4_ a_hwdata_5_ a_hwdata_6_ a_hwdata_7_ a_hwdata_8_ a_hwdata_9_ a_hwdata_10_ a_hwdata_11_ a_hwdata_12_ a_hwdata_13_ a_hwdata_14_ a_hwdata_15_ a_hwdata_16_ a_hwdata_17_ a_hwdata_18_ a_hwdata_19_ a_hwdata_20_ a_hwdata_21_ a_hwdata_22_ a_hwdata_23_ a_hwdata_24_ a_hwdata_25_ a_hwdata_26_ a_hwdata_27_ a_hwdata_28_ a_hwdata_29_ a_hwdata_30_ a_hwdata_31_
ABUFX4_1 [clk] clk_hier0_bF$buf11 d_lut_BUFX4
ABUFX4_2 [clk] clk_hier0_bF$buf10 d_lut_BUFX4
ABUFX4_3 [clk] clk_hier0_bF$buf9 d_lut_BUFX4
ABUFX4_4 [clk] clk_hier0_bF$buf8 d_lut_BUFX4
ABUFX4_5 [clk] clk_hier0_bF$buf7 d_lut_BUFX4
ABUFX4_6 [clk] clk_hier0_bF$buf6 d_lut_BUFX4
ABUFX4_7 [clk] clk_hier0_bF$buf5 d_lut_BUFX4
ABUFX4_8 [clk] clk_hier0_bF$buf4 d_lut_BUFX4
ABUFX4_9 [clk] clk_hier0_bF$buf3 d_lut_BUFX4
ABUFX4_10 [clk] clk_hier0_bF$buf2 d_lut_BUFX4
ABUFX4_11 [clk] clk_hier0_bF$buf1 d_lut_BUFX4
ABUFX4_12 [clk] clk_hier0_bF$buf0 d_lut_BUFX4
ABUFX4_13 [_7303__bF$buf3] _7303__bF$buf3_bF$buf3 d_lut_BUFX4
ABUFX2_1 [_7303__bF$buf3] _7303__bF$buf3_bF$buf2 d_lut_BUFX2
ABUFX4_14 [_7303__bF$buf3] _7303__bF$buf3_bF$buf1 d_lut_BUFX4
ABUFX2_2 [_7303__bF$buf3] _7303__bF$buf3_bF$buf0 d_lut_BUFX2
ABUFX4_15 [_7303__bF$buf4] _7303__bF$buf4_bF$buf3 d_lut_BUFX4
ABUFX4_16 [_7303__bF$buf4] _7303__bF$buf4_bF$buf2 d_lut_BUFX4
ABUFX2_3 [_7303__bF$buf4] _7303__bF$buf4_bF$buf1 d_lut_BUFX2
ABUFX2_4 [_7303__bF$buf4] _7303__bF$buf4_bF$buf0 d_lut_BUFX2
ABUFX4_17 [_7303__bF$buf5] _7303__bF$buf5_bF$buf3 d_lut_BUFX4
ABUFX2_5 [_7303__bF$buf5] _7303__bF$buf5_bF$buf2 d_lut_BUFX2
ABUFX2_6 [_7303__bF$buf5] _7303__bF$buf5_bF$buf1 d_lut_BUFX2
ABUFX2_7 [_7303__bF$buf5] _7303__bF$buf5_bF$buf0 d_lut_BUFX2
ABUFX4_18 [_7303__bF$buf6] _7303__bF$buf6_bF$buf3 d_lut_BUFX4
ABUFX2_8 [_7303__bF$buf6] _7303__bF$buf6_bF$buf2 d_lut_BUFX2
ABUFX2_9 [_7303__bF$buf6] _7303__bF$buf6_bF$buf1 d_lut_BUFX2
ABUFX2_10 [_7303__bF$buf6] _7303__bF$buf6_bF$buf0 d_lut_BUFX2
ABUFX4_19 [_7303__bF$buf7] _7303__bF$buf7_bF$buf3 d_lut_BUFX4
ABUFX4_20 [_7303__bF$buf7] _7303__bF$buf7_bF$buf2 d_lut_BUFX4
ABUFX2_11 [_7303__bF$buf7] _7303__bF$buf7_bF$buf1 d_lut_BUFX2
ABUFX2_12 [_7303__bF$buf7] _7303__bF$buf7_bF$buf0 d_lut_BUFX2
ABUFX4_21 [_7303__bF$buf8] _7303__bF$buf8_bF$buf3 d_lut_BUFX4
ABUFX2_13 [_7303__bF$buf8] _7303__bF$buf8_bF$buf2 d_lut_BUFX2
ABUFX2_14 [_7303__bF$buf8] _7303__bF$buf8_bF$buf1 d_lut_BUFX2
ABUFX2_15 [_7303__bF$buf8] _7303__bF$buf8_bF$buf0 d_lut_BUFX2
ABUFX4_22 [_7303__bF$buf9] _7303__bF$buf9_bF$buf3 d_lut_BUFX4
ABUFX2_16 [_7303__bF$buf9] _7303__bF$buf9_bF$buf2 d_lut_BUFX2
ABUFX2_17 [_7303__bF$buf9] _7303__bF$buf9_bF$buf1 d_lut_BUFX2
ABUFX2_18 [_7303__bF$buf9] _7303__bF$buf9_bF$buf0 d_lut_BUFX2
ABUFX4_23 [_7304__bF$buf10] _7304__bF$buf10_bF$buf3 d_lut_BUFX4
ABUFX2_19 [_7304__bF$buf10] _7304__bF$buf10_bF$buf2 d_lut_BUFX2
ABUFX4_24 [_7304__bF$buf10] _7304__bF$buf10_bF$buf1 d_lut_BUFX4
ABUFX2_20 [_7304__bF$buf10] _7304__bF$buf10_bF$buf0 d_lut_BUFX2
ABUFX4_25 [_7304__bF$buf11] _7304__bF$buf11_bF$buf3 d_lut_BUFX4
ABUFX2_21 [_7304__bF$buf11] _7304__bF$buf11_bF$buf2 d_lut_BUFX2
ABUFX4_26 [_7304__bF$buf11] _7304__bF$buf11_bF$buf1 d_lut_BUFX4
ABUFX2_22 [_7304__bF$buf11] _7304__bF$buf11_bF$buf0 d_lut_BUFX2
ABUFX4_27 [_7304__bF$buf12] _7304__bF$buf12_bF$buf3 d_lut_BUFX4
ABUFX2_23 [_7304__bF$buf12] _7304__bF$buf12_bF$buf2 d_lut_BUFX2
ABUFX4_28 [_7304__bF$buf12] _7304__bF$buf12_bF$buf1 d_lut_BUFX4
ABUFX4_29 [_7304__bF$buf12] _7304__bF$buf12_bF$buf0 d_lut_BUFX4
ABUFX4_30 [_7304__bF$buf13] _7304__bF$buf13_bF$buf3 d_lut_BUFX4
ABUFX2_24 [_7304__bF$buf13] _7304__bF$buf13_bF$buf2 d_lut_BUFX2
ABUFX4_31 [_7304__bF$buf13] _7304__bF$buf13_bF$buf1 d_lut_BUFX4
ABUFX2_25 [_7304__bF$buf13] _7304__bF$buf13_bF$buf0 d_lut_BUFX2
ABUFX4_32 [_7304__bF$buf14] _7304__bF$buf14_bF$buf3 d_lut_BUFX4
ABUFX2_26 [_7304__bF$buf14] _7304__bF$buf14_bF$buf2 d_lut_BUFX2
ABUFX2_27 [_7304__bF$buf14] _7304__bF$buf14_bF$buf1 d_lut_BUFX2
ABUFX2_28 [_7304__bF$buf14] _7304__bF$buf14_bF$buf0 d_lut_BUFX2
ABUFX4_33 [_7304__bF$buf6] _7304__bF$buf6_bF$buf3 d_lut_BUFX4
ABUFX2_29 [_7304__bF$buf6] _7304__bF$buf6_bF$buf2 d_lut_BUFX2
ABUFX4_34 [_7304__bF$buf6] _7304__bF$buf6_bF$buf1 d_lut_BUFX4
ABUFX2_30 [_7304__bF$buf6] _7304__bF$buf6_bF$buf0 d_lut_BUFX2
ABUFX4_35 [_7304__bF$buf7] _7304__bF$buf7_bF$buf3 d_lut_BUFX4
ABUFX2_31 [_7304__bF$buf7] _7304__bF$buf7_bF$buf2 d_lut_BUFX2
ABUFX2_32 [_7304__bF$buf7] _7304__bF$buf7_bF$buf1 d_lut_BUFX2
ABUFX2_33 [_7304__bF$buf7] _7304__bF$buf7_bF$buf0 d_lut_BUFX2
ABUFX4_36 [_7304__bF$buf8] _7304__bF$buf8_bF$buf3 d_lut_BUFX4
ABUFX2_34 [_7304__bF$buf8] _7304__bF$buf8_bF$buf2 d_lut_BUFX2
ABUFX4_37 [_7304__bF$buf8] _7304__bF$buf8_bF$buf1 d_lut_BUFX4
ABUFX2_35 [_7304__bF$buf8] _7304__bF$buf8_bF$buf0 d_lut_BUFX2
ABUFX4_38 [_7304__bF$buf9] _7304__bF$buf9_bF$buf3 d_lut_BUFX4
ABUFX2_36 [_7304__bF$buf9] _7304__bF$buf9_bF$buf2 d_lut_BUFX2
ABUFX2_37 [_7304__bF$buf9] _7304__bF$buf9_bF$buf1 d_lut_BUFX2
ABUFX2_38 [_7304__bF$buf9] _7304__bF$buf9_bF$buf0 d_lut_BUFX2
ABUFX4_39 [_6879_] _6879__hier0_bF$buf5 d_lut_BUFX4
ABUFX4_40 [_6879_] _6879__hier0_bF$buf4 d_lut_BUFX4
ABUFX4_41 [_6879_] _6879__hier0_bF$buf3 d_lut_BUFX4
ABUFX4_42 [_6879_] _6879__hier0_bF$buf2 d_lut_BUFX4
ABUFX4_43 [_6879_] _6879__hier0_bF$buf1 d_lut_BUFX4
ABUFX4_44 [_6879_] _6879__hier0_bF$buf0 d_lut_BUFX4
ABUFX4_45 [_7303__bF$buf10] _7303__bF$buf10_bF$buf3 d_lut_BUFX4
ABUFX2_39 [_7303__bF$buf10] _7303__bF$buf10_bF$buf2 d_lut_BUFX2
ABUFX2_40 [_7303__bF$buf10] _7303__bF$buf10_bF$buf1 d_lut_BUFX2
ABUFX2_41 [_7303__bF$buf10] _7303__bF$buf10_bF$buf0 d_lut_BUFX2
ABUFX4_46 [_7303__bF$buf11] _7303__bF$buf11_bF$buf3 d_lut_BUFX4
ABUFX2_42 [_7303__bF$buf11] _7303__bF$buf11_bF$buf2 d_lut_BUFX2
ABUFX2_43 [_7303__bF$buf11] _7303__bF$buf11_bF$buf1 d_lut_BUFX2
ABUFX2_44 [_7303__bF$buf11] _7303__bF$buf11_bF$buf0 d_lut_BUFX2
ABUFX4_47 [_7303__bF$buf12] _7303__bF$buf12_bF$buf3 d_lut_BUFX4
ABUFX2_45 [_7303__bF$buf12] _7303__bF$buf12_bF$buf2 d_lut_BUFX2
ABUFX2_46 [_7303__bF$buf12] _7303__bF$buf12_bF$buf1 d_lut_BUFX2
ABUFX2_47 [_7303__bF$buf12] _7303__bF$buf12_bF$buf0 d_lut_BUFX2
ABUFX4_48 [_7303__bF$buf13] _7303__bF$buf13_bF$buf3 d_lut_BUFX4
ABUFX2_48 [_7303__bF$buf13] _7303__bF$buf13_bF$buf2 d_lut_BUFX2
ABUFX2_49 [_7303__bF$buf13] _7303__bF$buf13_bF$buf1 d_lut_BUFX2
ABUFX2_50 [_7303__bF$buf13] _7303__bF$buf13_bF$buf0 d_lut_BUFX2
ABUFX4_49 [_7303__bF$buf14] _7303__bF$buf14_bF$buf3 d_lut_BUFX4
ABUFX2_51 [_7303__bF$buf14] _7303__bF$buf14_bF$buf2 d_lut_BUFX2
ABUFX2_52 [_7303__bF$buf14] _7303__bF$buf14_bF$buf1 d_lut_BUFX2
ABUFX4_50 [_7303__bF$buf14] _7303__bF$buf14_bF$buf0 d_lut_BUFX4
ABUFX4_51 [rst] rst_hier0_bF$buf7 d_lut_BUFX4
ABUFX4_52 [rst] rst_hier0_bF$buf6 d_lut_BUFX4
ABUFX4_53 [rst] rst_hier0_bF$buf5 d_lut_BUFX4
ABUFX4_54 [rst] rst_hier0_bF$buf4 d_lut_BUFX4
ABUFX4_55 [rst] rst_hier0_bF$buf3 d_lut_BUFX4
ABUFX4_56 [rst] rst_hier0_bF$buf2 d_lut_BUFX4
ABUFX4_57 [rst] rst_hier0_bF$buf1 d_lut_BUFX4
ABUFX4_58 [rst] rst_hier0_bF$buf0 d_lut_BUFX4
ABUFX4_59 [_7434_] _7434__bF$buf4 d_lut_BUFX4
ABUFX4_60 [_7434_] _7434__bF$buf3 d_lut_BUFX4
ABUFX4_61 [_7434_] _7434__bF$buf2 d_lut_BUFX4
ABUFX4_62 [_7434_] _7434__bF$buf1 d_lut_BUFX4
ABUFX4_63 [_7434_] _7434__bF$buf0 d_lut_BUFX4
ABUFX4_64 [_32_] _32__bF$buf3 d_lut_BUFX4
ABUFX4_65 [_32_] _32__bF$buf2 d_lut_BUFX4
ABUFX4_66 [_32_] _32__bF$buf1 d_lut_BUFX4
ABUFX4_67 [_32_] _32__bF$buf0 d_lut_BUFX4
ABUFX4_68 [_6292_] _6292__bF$buf4 d_lut_BUFX4
ABUFX4_69 [_6292_] _6292__bF$buf3 d_lut_BUFX4
ABUFX4_70 [_6292_] _6292__bF$buf2 d_lut_BUFX4
ABUFX4_71 [_6292_] _6292__bF$buf1 d_lut_BUFX4
ABUFX4_72 [_6292_] _6292__bF$buf0 d_lut_BUFX4
ABUFX4_73 [_6160_] _6160__bF$buf10 d_lut_BUFX4
ABUFX4_74 [_6160_] _6160__bF$buf9 d_lut_BUFX4
ABUFX4_75 [_6160_] _6160__bF$buf8 d_lut_BUFX4
ABUFX4_76 [_6160_] _6160__bF$buf7 d_lut_BUFX4
ABUFX4_77 [_6160_] _6160__bF$buf6 d_lut_BUFX4
ABUFX4_78 [_6160_] _6160__bF$buf5 d_lut_BUFX4
ABUFX4_79 [_6160_] _6160__bF$buf4 d_lut_BUFX4
ABUFX4_80 [_6160_] _6160__bF$buf3 d_lut_BUFX4
ABUFX4_81 [_6160_] _6160__bF$buf2 d_lut_BUFX4
ABUFX4_82 [_6160_] _6160__bF$buf1 d_lut_BUFX4
ABUFX4_83 [_6160_] _6160__bF$buf0 d_lut_BUFX4
ABUFX4_84 [_14545_] _14545__bF$buf3 d_lut_BUFX4
ABUFX4_85 [_14545_] _14545__bF$buf2 d_lut_BUFX4
ABUFX4_86 [_14545_] _14545__bF$buf1 d_lut_BUFX4
ABUFX4_87 [_14545_] _14545__bF$buf0 d_lut_BUFX4
ABUFX4_88 [_2499_] _2499__bF$buf4 d_lut_BUFX4
ABUFX4_89 [_2499_] _2499__bF$buf3 d_lut_BUFX4
ABUFX4_90 [_2499_] _2499__bF$buf2 d_lut_BUFX4
ABUFX4_91 [_2499_] _2499__bF$buf1 d_lut_BUFX4
ABUFX4_92 [_2499_] _2499__bF$buf0 d_lut_BUFX4
ABUFX4_93 [_13776_] _13776__bF$buf3 d_lut_BUFX4
ABUFX4_94 [_13776_] _13776__bF$buf2 d_lut_BUFX4
ABUFX4_95 [_13776_] _13776__bF$buf1 d_lut_BUFX4
ABUFX4_96 [_13776_] _13776__bF$buf0 d_lut_BUFX4
ABUFX4_97 [_6931_] _6931__bF$buf3 d_lut_BUFX4
ABUFX4_98 [_6931_] _6931__bF$buf2 d_lut_BUFX4
ABUFX4_99 [_6931_] _6931__bF$buf1 d_lut_BUFX4
ABUFX4_100 [_6931_] _6931__bF$buf0 d_lut_BUFX4
ABUFX4_101 [_13415_] _13415__bF$buf6 d_lut_BUFX4
ABUFX4_102 [_13415_] _13415__bF$buf5 d_lut_BUFX4
ABUFX4_103 [_13415_] _13415__bF$buf4 d_lut_BUFX4
ABUFX4_104 [_13415_] _13415__bF$buf3 d_lut_BUFX4
ABUFX4_105 [_13415_] _13415__bF$buf2 d_lut_BUFX4
ABUFX4_106 [_13415_] _13415__bF$buf1 d_lut_BUFX4
ABUFX4_107 [_13415_] _13415__bF$buf0 d_lut_BUFX4
ABUFX4_108 [_1068_] _1068__bF$buf4 d_lut_BUFX4
ABUFX4_109 [_1068_] _1068__bF$buf3 d_lut_BUFX4
ABUFX4_110 [_1068_] _1068__bF$buf2 d_lut_BUFX4
ABUFX4_111 [_1068_] _1068__bF$buf1 d_lut_BUFX4
ABUFX4_112 [_1068_] _1068__bF$buf0 d_lut_BUFX4
ABUFX4_113 [_4893_] _4893__bF$buf5 d_lut_BUFX4
ABUFX4_114 [_4893_] _4893__bF$buf4 d_lut_BUFX4
ABUFX4_115 [_4893_] _4893__bF$buf3 d_lut_BUFX4
ABUFX4_116 [_4893_] _4893__bF$buf2 d_lut_BUFX4
ABUFX4_117 [_4893_] _4893__bF$buf1 d_lut_BUFX4
ABUFX4_118 [_4893_] _4893__bF$buf0 d_lut_BUFX4
ABUFX4_119 [_13470_] _13470__bF$buf4 d_lut_BUFX4
ABUFX4_120 [_13470_] _13470__bF$buf3 d_lut_BUFX4
ABUFX4_121 [_13470_] _13470__bF$buf2 d_lut_BUFX4
ABUFX4_122 [_13470_] _13470__bF$buf1 d_lut_BUFX4
ABUFX4_123 [_13470_] _13470__bF$buf0 d_lut_BUFX4
ABUFX4_124 [_8328_] _8328__bF$buf5 d_lut_BUFX4
ABUFX4_125 [_8328_] _8328__bF$buf4 d_lut_BUFX4
ABUFX4_126 [_8328_] _8328__bF$buf3 d_lut_BUFX4
ABUFX4_127 [_8328_] _8328__bF$buf2 d_lut_BUFX4
ABUFX4_128 [_8328_] _8328__bF$buf1 d_lut_BUFX4
ABUFX4_129 [_8328_] _8328__bF$buf0 d_lut_BUFX4
ABUFX4_130 [_2994_] _2994__bF$buf4 d_lut_BUFX4
ABUFX4_131 [_2994_] _2994__bF$buf3 d_lut_BUFX4
ABUFX4_132 [_2994_] _2994__bF$buf2 d_lut_BUFX4
ABUFX4_133 [_2994_] _2994__bF$buf1 d_lut_BUFX4
ABUFX4_134 [_2994_] _2994__bF$buf0 d_lut_BUFX4
ABUFX4_135 [_8557_] _8557__bF$buf5 d_lut_BUFX4
ABUFX4_136 [_8557_] _8557__bF$buf4 d_lut_BUFX4
ABUFX4_137 [_8557_] _8557__bF$buf3 d_lut_BUFX4
ABUFX4_138 [_8557_] _8557__bF$buf2 d_lut_BUFX4
ABUFX4_139 [_8557_] _8557__bF$buf1 d_lut_BUFX4
ABUFX4_140 [_8557_] _8557__bF$buf0 d_lut_BUFX4
ABUFX4_141 [_2862_] _2862__bF$buf4 d_lut_BUFX4
ABUFX4_142 [_2862_] _2862__bF$buf3 d_lut_BUFX4
ABUFX4_143 [_2862_] _2862__bF$buf2 d_lut_BUFX4
ABUFX4_144 [_2862_] _2862__bF$buf1 d_lut_BUFX4
ABUFX4_145 [_2862_] _2862__bF$buf0 d_lut_BUFX4
ABUFX4_146 [_2531_] _2531__bF$buf4 d_lut_BUFX4
ABUFX4_147 [_2531_] _2531__bF$buf3 d_lut_BUFX4
ABUFX4_148 [_2531_] _2531__bF$buf2 d_lut_BUFX4
ABUFX4_149 [_2531_] _2531__bF$buf1 d_lut_BUFX4
ABUFX4_150 [_2531_] _2531__bF$buf0 d_lut_BUFX4
ABUFX4_151 [_2501_] _2501__bF$buf4 d_lut_BUFX4
ABUFX4_152 [_2501_] _2501__bF$buf3 d_lut_BUFX4
ABUFX4_153 [_2501_] _2501__bF$buf2 d_lut_BUFX4
ABUFX4_154 [_2501_] _2501__bF$buf1 d_lut_BUFX4
ABUFX4_155 [_2501_] _2501__bF$buf0 d_lut_BUFX4
ABUFX4_156 [_6459_] _6459__bF$buf4 d_lut_BUFX4
ABUFX4_157 [_6459_] _6459__bF$buf3 d_lut_BUFX4
ABUFX4_158 [_6459_] _6459__bF$buf2 d_lut_BUFX4
ABUFX4_159 [_6459_] _6459__bF$buf1 d_lut_BUFX4
ABUFX4_160 [_6459_] _6459__bF$buf0 d_lut_BUFX4
ABUFX4_161 [_8684_] _8684__bF$buf5 d_lut_BUFX4
ABUFX4_162 [_8684_] _8684__bF$buf4 d_lut_BUFX4
ABUFX4_163 [_8684_] _8684__bF$buf3 d_lut_BUFX4
ABUFX4_164 [_8684_] _8684__bF$buf2 d_lut_BUFX4
ABUFX4_165 [_8684_] _8684__bF$buf1 d_lut_BUFX4
ABUFX4_166 [_8684_] _8684__bF$buf0 d_lut_BUFX4
ABUFX4_167 [_2730_] _2730__bF$buf5 d_lut_BUFX4
ABUFX4_168 [_2730_] _2730__bF$buf4 d_lut_BUFX4
ABUFX4_169 [_2730_] _2730__bF$buf3 d_lut_BUFX4
ABUFX4_170 [_2730_] _2730__bF$buf2 d_lut_BUFX4
ABUFX4_171 [_2730_] _2730__bF$buf1 d_lut_BUFX4
ABUFX4_172 [_2730_] _2730__bF$buf0 d_lut_BUFX4
ABUFX4_173 [_9020_] _9020__bF$buf3 d_lut_BUFX4
ABUFX2_53 [_9020_] _9020__bF$buf2 d_lut_BUFX2
ABUFX2_54 [_9020_] _9020__bF$buf1 d_lut_BUFX2
ABUFX2_55 [_9020_] _9020__bF$buf0 d_lut_BUFX2
ABUFX4_174 [_6026_] _6026__bF$buf10 d_lut_BUFX4
ABUFX4_175 [_6026_] _6026__bF$buf9 d_lut_BUFX4
ABUFX4_176 [_6026_] _6026__bF$buf8 d_lut_BUFX4
ABUFX4_177 [_6026_] _6026__bF$buf7 d_lut_BUFX4
ABUFX4_178 [_6026_] _6026__bF$buf6 d_lut_BUFX4
ABUFX4_179 [_6026_] _6026__bF$buf5 d_lut_BUFX4
ABUFX4_180 [_6026_] _6026__bF$buf4 d_lut_BUFX4
ABUFX4_181 [_6026_] _6026__bF$buf3 d_lut_BUFX4
ABUFX4_182 [_6026_] _6026__bF$buf2 d_lut_BUFX4
ABUFX4_183 [_6026_] _6026__bF$buf1 d_lut_BUFX4
ABUFX4_184 [_6026_] _6026__bF$buf0 d_lut_BUFX4
ABUFX4_185 [_8281_] _8281__bF$buf5 d_lut_BUFX4
ABUFX4_186 [_8281_] _8281__bF$buf4 d_lut_BUFX4
ABUFX4_187 [_8281_] _8281__bF$buf3 d_lut_BUFX4
ABUFX4_188 [_8281_] _8281__bF$buf2 d_lut_BUFX4
ABUFX4_189 [_8281_] _8281__bF$buf1 d_lut_BUFX4
ABUFX4_190 [_8281_] _8281__bF$buf0 d_lut_BUFX4
ABUFX4_191 [_7584_] _7584__bF$buf5 d_lut_BUFX4
ABUFX4_192 [_7584_] _7584__bF$buf4 d_lut_BUFX4
ABUFX4_193 [_7584_] _7584__bF$buf3 d_lut_BUFX4
ABUFX4_194 [_7584_] _7584__bF$buf2 d_lut_BUFX4
ABUFX4_195 [_7584_] _7584__bF$buf1 d_lut_BUFX4
ABUFX4_196 [_7584_] _7584__bF$buf0 d_lut_BUFX4
ABUFX4_197 [clk_hier0_bF$buf11] clk_bF$buf160 d_lut_BUFX4
ABUFX4_198 [clk_hier0_bF$buf10] clk_bF$buf159 d_lut_BUFX4
ABUFX4_199 [clk_hier0_bF$buf9] clk_bF$buf158 d_lut_BUFX4
ABUFX4_200 [clk_hier0_bF$buf8] clk_bF$buf157 d_lut_BUFX4
ABUFX4_201 [clk_hier0_bF$buf7] clk_bF$buf156 d_lut_BUFX4
ABUFX4_202 [clk_hier0_bF$buf6] clk_bF$buf155 d_lut_BUFX4
ABUFX4_203 [clk_hier0_bF$buf5] clk_bF$buf154 d_lut_BUFX4
ABUFX4_204 [clk_hier0_bF$buf4] clk_bF$buf153 d_lut_BUFX4
ABUFX4_205 [clk_hier0_bF$buf3] clk_bF$buf152 d_lut_BUFX4
ABUFX4_206 [clk_hier0_bF$buf2] clk_bF$buf151 d_lut_BUFX4
ABUFX4_207 [clk_hier0_bF$buf1] clk_bF$buf150 d_lut_BUFX4
ABUFX4_208 [clk_hier0_bF$buf0] clk_bF$buf149 d_lut_BUFX4
ABUFX4_209 [clk_hier0_bF$buf11] clk_bF$buf148 d_lut_BUFX4
ABUFX4_210 [clk_hier0_bF$buf10] clk_bF$buf147 d_lut_BUFX4
ABUFX4_211 [clk_hier0_bF$buf9] clk_bF$buf146 d_lut_BUFX4
ABUFX4_212 [clk_hier0_bF$buf8] clk_bF$buf145 d_lut_BUFX4
ABUFX4_213 [clk_hier0_bF$buf7] clk_bF$buf144 d_lut_BUFX4
ABUFX4_214 [clk_hier0_bF$buf6] clk_bF$buf143 d_lut_BUFX4
ABUFX4_215 [clk_hier0_bF$buf5] clk_bF$buf142 d_lut_BUFX4
ABUFX4_216 [clk_hier0_bF$buf4] clk_bF$buf141 d_lut_BUFX4
ABUFX4_217 [clk_hier0_bF$buf3] clk_bF$buf140 d_lut_BUFX4
ABUFX4_218 [clk_hier0_bF$buf2] clk_bF$buf139 d_lut_BUFX4
ABUFX4_219 [clk_hier0_bF$buf1] clk_bF$buf138 d_lut_BUFX4
ABUFX4_220 [clk_hier0_bF$buf0] clk_bF$buf137 d_lut_BUFX4
ABUFX4_221 [clk_hier0_bF$buf11] clk_bF$buf136 d_lut_BUFX4
ABUFX4_222 [clk_hier0_bF$buf10] clk_bF$buf135 d_lut_BUFX4
ABUFX4_223 [clk_hier0_bF$buf9] clk_bF$buf134 d_lut_BUFX4
ABUFX4_224 [clk_hier0_bF$buf8] clk_bF$buf133 d_lut_BUFX4
ABUFX4_225 [clk_hier0_bF$buf7] clk_bF$buf132 d_lut_BUFX4
ABUFX4_226 [clk_hier0_bF$buf6] clk_bF$buf131 d_lut_BUFX4
ABUFX4_227 [clk_hier0_bF$buf5] clk_bF$buf130 d_lut_BUFX4
ABUFX4_228 [clk_hier0_bF$buf4] clk_bF$buf129 d_lut_BUFX4
ABUFX4_229 [clk_hier0_bF$buf3] clk_bF$buf128 d_lut_BUFX4
ABUFX4_230 [clk_hier0_bF$buf2] clk_bF$buf127 d_lut_BUFX4
ABUFX4_231 [clk_hier0_bF$buf1] clk_bF$buf126 d_lut_BUFX4
ABUFX4_232 [clk_hier0_bF$buf0] clk_bF$buf125 d_lut_BUFX4
ABUFX4_233 [clk_hier0_bF$buf11] clk_bF$buf124 d_lut_BUFX4
ABUFX4_234 [clk_hier0_bF$buf10] clk_bF$buf123 d_lut_BUFX4
ABUFX4_235 [clk_hier0_bF$buf9] clk_bF$buf122 d_lut_BUFX4
ABUFX4_236 [clk_hier0_bF$buf8] clk_bF$buf121 d_lut_BUFX4
ABUFX4_237 [clk_hier0_bF$buf7] clk_bF$buf120 d_lut_BUFX4
ABUFX4_238 [clk_hier0_bF$buf6] clk_bF$buf119 d_lut_BUFX4
ABUFX4_239 [clk_hier0_bF$buf5] clk_bF$buf118 d_lut_BUFX4
ABUFX4_240 [clk_hier0_bF$buf4] clk_bF$buf117 d_lut_BUFX4
ABUFX4_241 [clk_hier0_bF$buf3] clk_bF$buf116 d_lut_BUFX4
ABUFX4_242 [clk_hier0_bF$buf2] clk_bF$buf115 d_lut_BUFX4
ABUFX4_243 [clk_hier0_bF$buf1] clk_bF$buf114 d_lut_BUFX4
ABUFX4_244 [clk_hier0_bF$buf0] clk_bF$buf113 d_lut_BUFX4
ABUFX4_245 [clk_hier0_bF$buf11] clk_bF$buf112 d_lut_BUFX4
ABUFX4_246 [clk_hier0_bF$buf10] clk_bF$buf111 d_lut_BUFX4
ABUFX4_247 [clk_hier0_bF$buf9] clk_bF$buf110 d_lut_BUFX4
ABUFX4_248 [clk_hier0_bF$buf8] clk_bF$buf109 d_lut_BUFX4
ABUFX4_249 [clk_hier0_bF$buf7] clk_bF$buf108 d_lut_BUFX4
ABUFX4_250 [clk_hier0_bF$buf6] clk_bF$buf107 d_lut_BUFX4
ABUFX4_251 [clk_hier0_bF$buf5] clk_bF$buf106 d_lut_BUFX4
ABUFX4_252 [clk_hier0_bF$buf4] clk_bF$buf105 d_lut_BUFX4
ABUFX4_253 [clk_hier0_bF$buf3] clk_bF$buf104 d_lut_BUFX4
ABUFX4_254 [clk_hier0_bF$buf2] clk_bF$buf103 d_lut_BUFX4
ABUFX4_255 [clk_hier0_bF$buf1] clk_bF$buf102 d_lut_BUFX4
ABUFX4_256 [clk_hier0_bF$buf0] clk_bF$buf101 d_lut_BUFX4
ABUFX4_257 [clk_hier0_bF$buf11] clk_bF$buf100 d_lut_BUFX4
ABUFX4_258 [clk_hier0_bF$buf10] clk_bF$buf99 d_lut_BUFX4
ABUFX4_259 [clk_hier0_bF$buf9] clk_bF$buf98 d_lut_BUFX4
ABUFX4_260 [clk_hier0_bF$buf8] clk_bF$buf97 d_lut_BUFX4
ABUFX4_261 [clk_hier0_bF$buf7] clk_bF$buf96 d_lut_BUFX4
ABUFX4_262 [clk_hier0_bF$buf6] clk_bF$buf95 d_lut_BUFX4
ABUFX4_263 [clk_hier0_bF$buf5] clk_bF$buf94 d_lut_BUFX4
ABUFX4_264 [clk_hier0_bF$buf4] clk_bF$buf93 d_lut_BUFX4
ABUFX4_265 [clk_hier0_bF$buf3] clk_bF$buf92 d_lut_BUFX4
ABUFX4_266 [clk_hier0_bF$buf2] clk_bF$buf91 d_lut_BUFX4
ABUFX4_267 [clk_hier0_bF$buf1] clk_bF$buf90 d_lut_BUFX4
ABUFX4_268 [clk_hier0_bF$buf0] clk_bF$buf89 d_lut_BUFX4
ABUFX4_269 [clk_hier0_bF$buf11] clk_bF$buf88 d_lut_BUFX4
ABUFX4_270 [clk_hier0_bF$buf10] clk_bF$buf87 d_lut_BUFX4
ABUFX4_271 [clk_hier0_bF$buf9] clk_bF$buf86 d_lut_BUFX4
ABUFX4_272 [clk_hier0_bF$buf8] clk_bF$buf85 d_lut_BUFX4
ABUFX4_273 [clk_hier0_bF$buf7] clk_bF$buf84 d_lut_BUFX4
ABUFX4_274 [clk_hier0_bF$buf6] clk_bF$buf83 d_lut_BUFX4
ABUFX4_275 [clk_hier0_bF$buf5] clk_bF$buf82 d_lut_BUFX4
ABUFX4_276 [clk_hier0_bF$buf4] clk_bF$buf81 d_lut_BUFX4
ABUFX4_277 [clk_hier0_bF$buf3] clk_bF$buf80 d_lut_BUFX4
ABUFX4_278 [clk_hier0_bF$buf2] clk_bF$buf79 d_lut_BUFX4
ABUFX4_279 [clk_hier0_bF$buf1] clk_bF$buf78 d_lut_BUFX4
ABUFX4_280 [clk_hier0_bF$buf0] clk_bF$buf77 d_lut_BUFX4
ABUFX4_281 [clk_hier0_bF$buf11] clk_bF$buf76 d_lut_BUFX4
ABUFX4_282 [clk_hier0_bF$buf10] clk_bF$buf75 d_lut_BUFX4
ABUFX4_283 [clk_hier0_bF$buf9] clk_bF$buf74 d_lut_BUFX4
ABUFX4_284 [clk_hier0_bF$buf8] clk_bF$buf73 d_lut_BUFX4
ABUFX4_285 [clk_hier0_bF$buf7] clk_bF$buf72 d_lut_BUFX4
ABUFX4_286 [clk_hier0_bF$buf6] clk_bF$buf71 d_lut_BUFX4
ABUFX4_287 [clk_hier0_bF$buf5] clk_bF$buf70 d_lut_BUFX4
ABUFX4_288 [clk_hier0_bF$buf4] clk_bF$buf69 d_lut_BUFX4
ABUFX4_289 [clk_hier0_bF$buf3] clk_bF$buf68 d_lut_BUFX4
ABUFX4_290 [clk_hier0_bF$buf2] clk_bF$buf67 d_lut_BUFX4
ABUFX4_291 [clk_hier0_bF$buf1] clk_bF$buf66 d_lut_BUFX4
ABUFX4_292 [clk_hier0_bF$buf0] clk_bF$buf65 d_lut_BUFX4
ABUFX4_293 [clk_hier0_bF$buf11] clk_bF$buf64 d_lut_BUFX4
ABUFX4_294 [clk_hier0_bF$buf10] clk_bF$buf63 d_lut_BUFX4
ABUFX4_295 [clk_hier0_bF$buf9] clk_bF$buf62 d_lut_BUFX4
ABUFX4_296 [clk_hier0_bF$buf8] clk_bF$buf61 d_lut_BUFX4
ABUFX4_297 [clk_hier0_bF$buf7] clk_bF$buf60 d_lut_BUFX4
ABUFX4_298 [clk_hier0_bF$buf6] clk_bF$buf59 d_lut_BUFX4
ABUFX4_299 [clk_hier0_bF$buf5] clk_bF$buf58 d_lut_BUFX4
ABUFX4_300 [clk_hier0_bF$buf4] clk_bF$buf57 d_lut_BUFX4
ABUFX4_301 [clk_hier0_bF$buf3] clk_bF$buf56 d_lut_BUFX4
ABUFX4_302 [clk_hier0_bF$buf2] clk_bF$buf55 d_lut_BUFX4
ABUFX4_303 [clk_hier0_bF$buf1] clk_bF$buf54 d_lut_BUFX4
ABUFX4_304 [clk_hier0_bF$buf0] clk_bF$buf53 d_lut_BUFX4
ABUFX4_305 [clk_hier0_bF$buf11] clk_bF$buf52 d_lut_BUFX4
ABUFX4_306 [clk_hier0_bF$buf10] clk_bF$buf51 d_lut_BUFX4
ABUFX4_307 [clk_hier0_bF$buf9] clk_bF$buf50 d_lut_BUFX4
ABUFX4_308 [clk_hier0_bF$buf8] clk_bF$buf49 d_lut_BUFX4
ABUFX4_309 [clk_hier0_bF$buf7] clk_bF$buf48 d_lut_BUFX4
ABUFX4_310 [clk_hier0_bF$buf6] clk_bF$buf47 d_lut_BUFX4
ABUFX4_311 [clk_hier0_bF$buf5] clk_bF$buf46 d_lut_BUFX4
ABUFX4_312 [clk_hier0_bF$buf4] clk_bF$buf45 d_lut_BUFX4
ABUFX4_313 [clk_hier0_bF$buf3] clk_bF$buf44 d_lut_BUFX4
ABUFX4_314 [clk_hier0_bF$buf2] clk_bF$buf43 d_lut_BUFX4
ABUFX4_315 [clk_hier0_bF$buf1] clk_bF$buf42 d_lut_BUFX4
ABUFX4_316 [clk_hier0_bF$buf0] clk_bF$buf41 d_lut_BUFX4
ABUFX4_317 [clk_hier0_bF$buf11] clk_bF$buf40 d_lut_BUFX4
ABUFX4_318 [clk_hier0_bF$buf10] clk_bF$buf39 d_lut_BUFX4
ABUFX4_319 [clk_hier0_bF$buf9] clk_bF$buf38 d_lut_BUFX4
ABUFX4_320 [clk_hier0_bF$buf8] clk_bF$buf37 d_lut_BUFX4
ABUFX4_321 [clk_hier0_bF$buf7] clk_bF$buf36 d_lut_BUFX4
ABUFX4_322 [clk_hier0_bF$buf6] clk_bF$buf35 d_lut_BUFX4
ABUFX4_323 [clk_hier0_bF$buf5] clk_bF$buf34 d_lut_BUFX4
ABUFX4_324 [clk_hier0_bF$buf4] clk_bF$buf33 d_lut_BUFX4
ABUFX4_325 [clk_hier0_bF$buf3] clk_bF$buf32 d_lut_BUFX4
ABUFX4_326 [clk_hier0_bF$buf2] clk_bF$buf31 d_lut_BUFX4
ABUFX4_327 [clk_hier0_bF$buf1] clk_bF$buf30 d_lut_BUFX4
ABUFX4_328 [clk_hier0_bF$buf0] clk_bF$buf29 d_lut_BUFX4
ABUFX4_329 [clk_hier0_bF$buf11] clk_bF$buf28 d_lut_BUFX4
ABUFX4_330 [clk_hier0_bF$buf10] clk_bF$buf27 d_lut_BUFX4
ABUFX4_331 [clk_hier0_bF$buf9] clk_bF$buf26 d_lut_BUFX4
ABUFX4_332 [clk_hier0_bF$buf8] clk_bF$buf25 d_lut_BUFX4
ABUFX4_333 [clk_hier0_bF$buf7] clk_bF$buf24 d_lut_BUFX4
ABUFX4_334 [clk_hier0_bF$buf6] clk_bF$buf23 d_lut_BUFX4
ABUFX4_335 [clk_hier0_bF$buf5] clk_bF$buf22 d_lut_BUFX4
ABUFX4_336 [clk_hier0_bF$buf4] clk_bF$buf21 d_lut_BUFX4
ABUFX4_337 [clk_hier0_bF$buf3] clk_bF$buf20 d_lut_BUFX4
ABUFX4_338 [clk_hier0_bF$buf2] clk_bF$buf19 d_lut_BUFX4
ABUFX4_339 [clk_hier0_bF$buf1] clk_bF$buf18 d_lut_BUFX4
ABUFX4_340 [clk_hier0_bF$buf0] clk_bF$buf17 d_lut_BUFX4
ABUFX4_341 [clk_hier0_bF$buf11] clk_bF$buf16 d_lut_BUFX4
ABUFX4_342 [clk_hier0_bF$buf10] clk_bF$buf15 d_lut_BUFX4
ABUFX4_343 [clk_hier0_bF$buf9] clk_bF$buf14 d_lut_BUFX4
ABUFX4_344 [clk_hier0_bF$buf8] clk_bF$buf13 d_lut_BUFX4
ABUFX4_345 [clk_hier0_bF$buf7] clk_bF$buf12 d_lut_BUFX4
ABUFX4_346 [clk_hier0_bF$buf6] clk_bF$buf11 d_lut_BUFX4
ABUFX4_347 [clk_hier0_bF$buf5] clk_bF$buf10 d_lut_BUFX4
ABUFX4_348 [clk_hier0_bF$buf4] clk_bF$buf9 d_lut_BUFX4
ABUFX4_349 [clk_hier0_bF$buf3] clk_bF$buf8 d_lut_BUFX4
ABUFX4_350 [clk_hier0_bF$buf2] clk_bF$buf7 d_lut_BUFX4
ABUFX4_351 [clk_hier0_bF$buf1] clk_bF$buf6 d_lut_BUFX4
ABUFX4_352 [clk_hier0_bF$buf0] clk_bF$buf5 d_lut_BUFX4
ABUFX4_353 [clk_hier0_bF$buf11] clk_bF$buf4 d_lut_BUFX4
ABUFX4_354 [clk_hier0_bF$buf10] clk_bF$buf3 d_lut_BUFX4
ABUFX4_355 [clk_hier0_bF$buf9] clk_bF$buf2 d_lut_BUFX4
ABUFX4_356 [clk_hier0_bF$buf8] clk_bF$buf1 d_lut_BUFX4
ABUFX4_357 [clk_hier0_bF$buf7] clk_bF$buf0 d_lut_BUFX4
ABUFX4_358 [_7320_] _7320__bF$buf3 d_lut_BUFX4
ABUFX4_359 [_7320_] _7320__bF$buf2 d_lut_BUFX4
ABUFX4_360 [_7320_] _7320__bF$buf1 d_lut_BUFX4
ABUFX4_361 [_7320_] _7320__bF$buf0 d_lut_BUFX4
ABUFX4_362 [_14334_] _14334__bF$buf4 d_lut_BUFX4
ABUFX4_363 [_14334_] _14334__bF$buf3 d_lut_BUFX4
ABUFX4_364 [_14334_] _14334__bF$buf2 d_lut_BUFX4
ABUFX4_365 [_14334_] _14334__bF$buf1 d_lut_BUFX4
ABUFX4_366 [_14334_] _14334__bF$buf0 d_lut_BUFX4
ABUFX4_367 [_4886_] _4886__bF$buf3 d_lut_BUFX4
ABUFX4_368 [_4886_] _4886__bF$buf2 d_lut_BUFX4
ABUFX4_369 [_4886_] _4886__bF$buf1 d_lut_BUFX4
ABUFX4_370 [_4886_] _4886__bF$buf0 d_lut_BUFX4
ABUFX4_371 [_2589_] _2589__bF$buf4 d_lut_BUFX4
ABUFX4_372 [_2589_] _2589__bF$buf3 d_lut_BUFX4
ABUFX4_373 [_2589_] _2589__bF$buf2 d_lut_BUFX4
ABUFX4_374 [_2589_] _2589__bF$buf1 d_lut_BUFX4
ABUFX4_375 [_2589_] _2589__bF$buf0 d_lut_BUFX4
ABUFX4_376 [_2529_] _2529__bF$buf4 d_lut_BUFX4
ABUFX4_377 [_2529_] _2529__bF$buf3 d_lut_BUFX4
ABUFX4_378 [_2529_] _2529__bF$buf2 d_lut_BUFX4
ABUFX4_379 [_2529_] _2529__bF$buf1 d_lut_BUFX4
ABUFX4_380 [_2529_] _2529__bF$buf0 d_lut_BUFX4
ABUFX4_381 [_2487_] _2487__bF$buf8 d_lut_BUFX4
ABUFX4_382 [_2487_] _2487__bF$buf7 d_lut_BUFX4
ABUFX4_383 [_2487_] _2487__bF$buf6 d_lut_BUFX4
ABUFX4_384 [_2487_] _2487__bF$buf5 d_lut_BUFX4
ABUFX4_385 [_2487_] _2487__bF$buf4 d_lut_BUFX4
ABUFX4_386 [_2487_] _2487__bF$buf3 d_lut_BUFX4
ABUFX4_387 [_2487_] _2487__bF$buf2 d_lut_BUFX4
ABUFX4_388 [_2487_] _2487__bF$buf1 d_lut_BUFX4
ABUFX4_389 [_2487_] _2487__bF$buf0 d_lut_BUFX4
ABUFX4_390 [_13463_] _13463__bF$buf4 d_lut_BUFX4
ABUFX4_391 [_13463_] _13463__bF$buf3 d_lut_BUFX4
ABUFX4_392 [_13463_] _13463__bF$buf2 d_lut_BUFX4
ABUFX4_393 [_13463_] _13463__bF$buf1 d_lut_BUFX4
ABUFX4_394 [_13463_] _13463__bF$buf0 d_lut_BUFX4
ABUFX4_395 [_13391_] _13391__bF$buf7 d_lut_BUFX4
ABUFX4_396 [_13391_] _13391__bF$buf6 d_lut_BUFX4
ABUFX4_397 [_13391_] _13391__bF$buf5 d_lut_BUFX4
ABUFX4_398 [_13391_] _13391__bF$buf4 d_lut_BUFX4
ABUFX4_399 [_13391_] _13391__bF$buf3 d_lut_BUFX4
ABUFX4_400 [_13391_] _13391__bF$buf2 d_lut_BUFX4
ABUFX4_401 [_13391_] _13391__bF$buf1 d_lut_BUFX4
ABUFX4_402 [_13391_] _13391__bF$buf0 d_lut_BUFX4
ABUFX4_403 [_4881_] _4881__bF$buf11 d_lut_BUFX4
ABUFX4_404 [_4881_] _4881__bF$buf10 d_lut_BUFX4
ABUFX4_405 [_4881_] _4881__bF$buf9 d_lut_BUFX4
ABUFX4_406 [_4881_] _4881__bF$buf8 d_lut_BUFX4
ABUFX4_407 [_4881_] _4881__bF$buf7 d_lut_BUFX4
ABUFX4_408 [_4881_] _4881__bF$buf6 d_lut_BUFX4
ABUFX4_409 [_4881_] _4881__bF$buf5 d_lut_BUFX4
ABUFX4_410 [_4881_] _4881__bF$buf4 d_lut_BUFX4
ABUFX4_411 [_4881_] _4881__bF$buf3 d_lut_BUFX4
ABUFX4_412 [_4881_] _4881__bF$buf2 d_lut_BUFX4
ABUFX4_413 [_4881_] _4881__bF$buf1 d_lut_BUFX4
ABUFX4_414 [_4881_] _4881__bF$buf0 d_lut_BUFX4
ABUFX4_415 [_9175_] _9175__bF$buf4 d_lut_BUFX4
ABUFX4_416 [_9175_] _9175__bF$buf3 d_lut_BUFX4
ABUFX4_417 [_9175_] _9175__bF$buf2 d_lut_BUFX4
ABUFX4_418 [_9175_] _9175__bF$buf1 d_lut_BUFX4
ABUFX4_419 [_9175_] _9175__bF$buf0 d_lut_BUFX4
ABUFX4_420 [_1225_] _1225__bF$buf5 d_lut_BUFX4
ABUFX4_421 [_1225_] _1225__bF$buf4 d_lut_BUFX4
ABUFX4_422 [_1225_] _1225__bF$buf3 d_lut_BUFX4
ABUFX4_423 [_1225_] _1225__bF$buf2 d_lut_BUFX4
ABUFX4_424 [_1225_] _1225__bF$buf1 d_lut_BUFX4
ABUFX4_425 [_1225_] _1225__bF$buf0 d_lut_BUFX4
ABUFX4_426 [_12291_] _12291__bF$buf3 d_lut_BUFX4
ABUFX4_427 [_12291_] _12291__bF$buf2 d_lut_BUFX4
ABUFX4_428 [_12291_] _12291__bF$buf1 d_lut_BUFX4
ABUFX4_429 [_12291_] _12291__bF$buf0 d_lut_BUFX4
ABUFX4_430 [_8117_] _8117__bF$buf6 d_lut_BUFX4
ABUFX4_431 [_8117_] _8117__bF$buf5 d_lut_BUFX4
ABUFX4_432 [_8117_] _8117__bF$buf4 d_lut_BUFX4
ABUFX4_433 [_8117_] _8117__bF$buf3 d_lut_BUFX4
ABUFX4_434 [_8117_] _8117__bF$buf2 d_lut_BUFX4
ABUFX4_435 [_8117_] _8117__bF$buf1 d_lut_BUFX4
ABUFX4_436 [_8117_] _8117__bF$buf0 d_lut_BUFX4
ABUFX4_437 [_11402_] _11402__bF$buf3 d_lut_BUFX4
ABUFX2_56 [_11402_] _11402__bF$buf2 d_lut_BUFX2
ABUFX2_57 [_11402_] _11402__bF$buf1 d_lut_BUFX2
ABUFX2_58 [_11402_] _11402__bF$buf0 d_lut_BUFX2
ABUFX4_438 [biu.mmu.msu_0_] biu.mmu.msu_0_bF$buf4 d_lut_BUFX4
ABUFX4_439 [biu.mmu.msu_0_] biu.mmu.msu_0_bF$buf3 d_lut_BUFX4
ABUFX4_440 [biu.mmu.msu_0_] biu.mmu.msu_0_bF$buf2 d_lut_BUFX4
ABUFX4_441 [biu.mmu.msu_0_] biu.mmu.msu_0_bF$buf1 d_lut_BUFX4
ABUFX4_442 [biu.mmu.msu_0_] biu.mmu.msu_0_bF$buf0 d_lut_BUFX4
ABUFX4_443 [_8846_] _8846__bF$buf3 d_lut_BUFX4
ABUFX4_444 [_8846_] _8846__bF$buf2 d_lut_BUFX4
ABUFX4_445 [_8846_] _8846__bF$buf1 d_lut_BUFX4
ABUFX4_446 [_8846_] _8846__bF$buf0 d_lut_BUFX4
ABUFX4_447 [_9110_] _9110__bF$buf3 d_lut_BUFX4
ABUFX4_448 [_9110_] _9110__bF$buf2 d_lut_BUFX4
ABUFX2_59 [_9110_] _9110__bF$buf1 d_lut_BUFX2
ABUFX4_449 [_9110_] _9110__bF$buf0 d_lut_BUFX4
ABUFX4_450 [_1220_] _1220__bF$buf5 d_lut_BUFX4
ABUFX4_451 [_1220_] _1220__bF$buf4 d_lut_BUFX4
ABUFX4_452 [_1220_] _1220__bF$buf3 d_lut_BUFX4
ABUFX4_453 [_1220_] _1220__bF$buf2 d_lut_BUFX4
ABUFX4_454 [_1220_] _1220__bF$buf1 d_lut_BUFX4
ABUFX4_455 [_1220_] _1220__bF$buf0 d_lut_BUFX4
ABUFX4_456 [_3117_] _3117__bF$buf9 d_lut_BUFX4
ABUFX4_457 [_3117_] _3117__bF$buf8 d_lut_BUFX4
ABUFX4_458 [_3117_] _3117__bF$buf7 d_lut_BUFX4
ABUFX4_459 [_3117_] _3117__bF$buf6 d_lut_BUFX4
ABUFX4_460 [_3117_] _3117__bF$buf5 d_lut_BUFX4
ABUFX4_461 [_3117_] _3117__bF$buf4 d_lut_BUFX4
ABUFX4_462 [_3117_] _3117__bF$buf3 d_lut_BUFX4
ABUFX4_463 [_3117_] _3117__bF$buf2 d_lut_BUFX4
ABUFX4_464 [_3117_] _3117__bF$buf1 d_lut_BUFX4
ABUFX4_465 [_3117_] _3117__bF$buf0 d_lut_BUFX4
ABUFX2_60 [biu.ins_25_] biu.ins_25_bF$buf3 d_lut_BUFX2
ABUFX4_466 [biu.ins_25_] biu.ins_25_bF$buf2 d_lut_BUFX4
ABUFX4_467 [biu.ins_25_] biu.ins_25_bF$buf1 d_lut_BUFX4
ABUFX2_61 [biu.ins_25_] biu.ins_25_bF$buf0 d_lut_BUFX2
ABUFX4_468 [addr_csr_27_] addr_csr_27_bF$buf3 d_lut_BUFX4
ABUFX4_469 [addr_csr_27_] addr_csr_27_bF$buf2 d_lut_BUFX4
ABUFX4_470 [addr_csr_27_] addr_csr_27_bF$buf1 d_lut_BUFX4
ABUFX4_471 [addr_csr_27_] addr_csr_27_bF$buf0 d_lut_BUFX4
ABUFX4_472 [_2547_] _2547__bF$buf4 d_lut_BUFX4
ABUFX4_473 [_2547_] _2547__bF$buf3 d_lut_BUFX4
ABUFX4_474 [_2547_] _2547__bF$buf2 d_lut_BUFX4
ABUFX4_475 [_2547_] _2547__bF$buf1 d_lut_BUFX4
ABUFX4_476 [_2547_] _2547__bF$buf0 d_lut_BUFX4
ABUFX4_477 [_2517_] _2517__bF$buf4 d_lut_BUFX4
ABUFX4_478 [_2517_] _2517__bF$buf3 d_lut_BUFX4